/*--------------------------------*- C++ -*----------------------------------*\
  =========                 |
  \\      /  F ield         | OpenFOAM: The Open Source CFD Toolbox
   \\    /   O peration     | Website:  https://openfoam.org
    \\  /    A nd           | Version:  6
     \\/     M anipulation  |
\*---------------------------------------------------------------------------*/
FoamFile
{
    version     2.0;
    format      ascii;
    class       featureEdgeMesh;
    location    "constant/triSurface";
    object      airfoil.eMesh;
}
// * * * * * * * * * * * * * * * * * * * * * * * * * * * * * * * * * * * * * //


// points:

112
(
(0.000102 0.056031 -0.2)
(0.000102 0.056031 0.2)
(0.045176 0.022746 -0.2)
(0.045176 0.022746 0.2)
(-7.7e-05 -0.001875 -0.2)
(-7.7e-05 -0.001875 0.2)
(0.972247 -0.171058 -0.2)
(0.972247 -0.171058 0.2)
(0.972678 -0.170169 -0.2)
(0.972678 -0.170169 0.2)
(-0 0 -0.2)
(0 -0 0.2)
(0.054879 0.024564 -0.2)
(0.054879 0.024564 0.2)
(0.078273 0.026744 -0.2)
(0.078273 0.026744 0.2)
(0.105562 0.027345 -0.2)
(0.105562 0.027345 0.2)
(0.003214 -0.008091 -0.2)
(0.003214 -0.008091 0.2)
(0.011635 -0.0151 -0.2)
(0.011635 -0.0151 0.2)
(0.024904 -0.022253 -0.2)
(0.024904 -0.022253 0.2)
(0.043189 -0.029356 -0.2)
(0.043189 -0.029356 0.2)
(0.066495 -0.036481 -0.2)
(0.066495 -0.036481 0.2)
(0.094581 -0.043687 -0.2)
(0.094581 -0.043687 0.2)
(0.127155 -0.050944 -0.2)
(0.127155 -0.050944 0.2)
(0.16388 -0.058222 -0.2)
(0.16388 -0.058222 0.2)
(0.136571 0.026294 -0.2)
(0.136571 0.026294 0.2)
(0.171112 0.023565 -0.2)
(0.171112 0.023565 0.2)
(0.208907 0.019195 -0.2)
(0.208907 0.019195 0.2)
(0.204413 -0.065491 -0.2)
(0.204413 -0.065491 0.2)
(0.24833 -0.072747 -0.2)
(0.24833 -0.072747 0.2)
(0.249671 0.013236 -0.2)
(0.249671 0.013236 0.2)
(0.295154 -0.079988 -0.2)
(0.295154 -0.079988 0.2)
(0.293056 0.005779 -0.2)
(0.293056 0.005779 0.2)
(0.338666 -0.003045 -0.2)
(0.338666 -0.003045 0.2)
(0.344349 -0.0872 -0.2)
(0.344349 -0.0872 0.2)
(0.386092 -0.013093 -0.2)
(0.386092 -0.013093 0.2)
(0.39534 -0.094364 -0.2)
(0.39534 -0.094364 0.2)
(0.447557 -0.101428 -0.2)
(0.447557 -0.101428 0.2)
(0.500399 -0.108339 -0.2)
(0.500399 -0.108339 0.2)
(0.553267 -0.115052 -0.2)
(0.553267 -0.115052 0.2)
(0.605581 -0.121504 -0.2)
(0.605581 -0.121504 0.2)
(0.434899 -0.024177 -0.2)
(0.434899 -0.024177 0.2)
(0.484592 -0.036107 -0.2)
(0.484592 -0.036107 0.2)
(0.534666 -0.048643 -0.2)
(0.534666 -0.048643 0.2)
(0.584596 -0.06159 -0.2)
(0.584596 -0.06159 0.2)
(0.633826 -0.074708 -0.2)
(0.633826 -0.074708 0.2)
(0.65679 -0.12766 -0.2)
(0.65679 -0.12766 0.2)
(0.681849 -0.087765 -0.2)
(0.681849 -0.087765 0.2)
(0.706369 -0.133559 -0.2)
(0.706369 -0.133559 0.2)
(0.728096 -0.10052 -0.2)
(0.728096 -0.10052 0.2)
(0.772003 -0.11273 -0.2)
(0.772003 -0.11273 0.2)
(0.753706 -0.139275 -0.2)
(0.753706 -0.139276 0.2)
(0.81302 -0.124227 -0.2)
(0.81302 -0.124227 0.2)
(0.798156 -0.144829 -0.2)
(0.798156 -0.144829 0.2)
(0.850632 -0.134819 0.2)
(0.850632 -0.134819 -0.2)
(0.839078 -0.150186 -0.2)
(0.839078 -0.150186 0.2)
(0.884366 -0.144372 -0.2)
(0.884366 -0.144372 0.2)
(0.875913 -0.15528 -0.2)
(0.875913 -0.15528 0.2)
(0.913747 -0.152751 -0.2)
(0.913747 -0.152751 0.2)
(0.908105 -0.160042 -0.2)
(0.908105 -0.160042 0.2)
(0.938418 -0.159914 -0.2)
(0.938418 -0.159914 0.2)
(0.935185 -0.16437 -0.2)
(0.935185 -0.16437 0.2)
(0.956682 -0.16811 -0.2)
(0.956682 -0.16811 0.2)
(0.958116 -0.165794 -0.2)
(0.958116 -0.165794 0.2)
)


// edges:

117
(
(2 3)
(0 1)
(5 4)
(7 6)
(8 9)
(10 0)
(1 11)
(0 2)
(3 1)
(2 12)
(13 3)
(12 14)
(15 13)
(14 16)
(17 15)
(4 10)
(11 5)
(18 4)
(5 19)
(20 18)
(19 21)
(22 20)
(21 23)
(24 22)
(23 25)
(26 24)
(25 27)
(28 26)
(27 29)
(30 28)
(29 31)
(32 30)
(31 33)
(16 34)
(35 17)
(34 36)
(37 35)
(36 38)
(39 37)
(40 32)
(33 41)
(42 40)
(41 43)
(38 44)
(45 39)
(46 42)
(43 47)
(44 48)
(49 45)
(48 50)
(51 49)
(52 46)
(47 53)
(50 54)
(55 51)
(56 52)
(53 57)
(58 56)
(57 59)
(60 58)
(59 61)
(62 60)
(61 63)
(64 62)
(63 65)
(54 66)
(67 55)
(66 68)
(69 67)
(68 70)
(71 69)
(70 72)
(73 71)
(72 74)
(75 73)
(76 64)
(65 77)
(74 78)
(79 75)
(80 76)
(77 81)
(78 82)
(83 79)
(82 84)
(85 83)
(86 80)
(81 87)
(84 88)
(89 85)
(90 86)
(87 91)
(92 89)
(88 93)
(94 90)
(91 95)
(93 96)
(97 92)
(98 94)
(95 99)
(96 100)
(101 97)
(102 98)
(99 103)
(100 104)
(105 101)
(106 102)
(103 107)
(108 106)
(107 109)
(6 108)
(109 7)
(104 110)
(111 105)
(110 8)
(9 111)
(7 9)
(8 6)
)

// * * * * * * * * * * * * * * * * * * * * * * * * * * * * * * * * * * * * * //


// ************************************************************************* //
