/*--------------------------------*- C++ -*----------------------------------*\
| =========                 |                                                 |
| \\      /  F ield         | OpenFOAM: The Open Source CFD Toolbox           |
|  \\    /   O peration     | Version:  2206                                  |
|   \\  /    A nd           | Website:  www.openfoam.com                      |
|    \\/     M anipulation  |                                                 |
\*---------------------------------------------------------------------------*/
FoamFile
{
    version     2.0;
    format      ascii;
    arch        "LSB;label=64;scalar=64";
    class       extendedFeatureEdgeMesh;
    location    "constant/extendedFeatureEdgeMesh";
    object      GeoTank_s.extendedFeatureEdgeMesh;
}
// * * * * * * * * * * * * * * * * * * * * * * * * * * * * * * * * * * * * * //

// points

30
(
(9.03982 -13.7496 157.795)
(-3.41919 16.0958 157.795)
(0.946678 -16.2844 157.793)
(14.6729 -7.16359 157.793)
(16.3755 0.599551 157.794)
(14.6142 7.12004 157.793)
(11.063 12.0092 157.793)
(5.04214 15.5131 157.793)
(-11.063 12.0092 157.793)
(-14.6142 7.12004 157.793)
(-16.3755 0.599552 157.794)
(-14.6729 -7.16359 157.793)
(-11.0209 -11.9503 157.793)
(-5.93808 -15.2101 157.793)
(-2.61213 9.0891 -175.461)
(1.88194 9.21227 -175.46)
(2.655 -9.01982 -175.46)
(-1.95212 -9.25332 -175.461)
(6.06105 7.25934 -175.461)
(5.49581 -7.59241 -175.459)
(7.82597 -5.23098 -175.46)
(8.39181 4.16764 -175.459)
(9.09795 -2.23874 -175.459)
(9.35679 0.927384 -175.46)
(-5.45917 -7.61498 -175.459)
(-6.5726 6.7235 -175.46)
(-7.83105 -5.20497 -175.46)
(-8.41355 4.13049 -175.459)
(-9.08592 -2.28703 -175.459)
(-9.36426 0.953427 -175.46)
)

// edges

30
(
(0 2)
(3 0)
(4 3)
(5 4)
(6 5)
(7 6)
(1 7)
(8 1)
(9 8)
(10 9)
(11 10)
(12 11)
(13 12)
(2 13)
(14 15)
(16 17)
(15 18)
(19 16)
(20 19)
(18 21)
(22 20)
(23 22)
(21 23)
(17 24)
(25 14)
(24 26)
(27 25)
(26 28)
(29 27)
(28 29)
)

// concaveStart mixedStart nonFeatureStart
2 2 2
// internalStart flatStart openStart multipleStart
30 30 30 30
// normals

56
(
(0.169746 -0.542525 0.822711)
(-0.000222006 2.8594e-05 1)
(0.432213 -0.369481 0.822603)
(0.000230886 4.34722e-05 1)
(0.55568 -0.121971 0.822401)
(-0.000693646 3.0266e-05 1)
(0.555575 0.150248 0.817779)
(0.462996 0.336219 0.820117)
(0.00017981 3.38553e-05 1)
(0.288288 0.495398 0.819433)
(1.24742e-05 6.06271e-05 1)
(0.0392565 0.567625 0.822351)
(0.000201988 -2.60157e-05 1)
(-0.26802 0.500996 0.822902)
(-0.000188621 -3.55141e-05 1)
(-0.465544 0.338071 0.81791)
(-0.00017981 3.38553e-05 1)
(-0.555927 0.150343 0.817522)
(0.000693647 3.02661e-05 1)
(-0.557508 -0.122372 0.821103)
(-0.456306 -0.348216 0.818859)
(0.000103886 -1.95602e-05 1)
(-0.307559 -0.479446 0.821912)
(-0.000105843 -1.99285e-05 1)
(-0.0882116 -0.565431 0.820065)
(1.1888e-05 -5.16471e-05 1)
(0.000339197 1.22053e-05 -1)
(-0.0191139 0.706152 -0.707802)
(0.00033049 1.40132e-05 -1)
(0.0359438 -0.704555 -0.708738)
(-0.000372501 -1.57946e-05 -1)
(0.298465 0.639246 -0.708719)
(0.000316731 -0.000160001 -1)
(0.317522 -0.631595 -0.707296)
(-0.000218664 -0.000139625 -1)
(0.502776 -0.49637 -0.707695)
(0.000974635 2.8992e-05 -1)
(0.564475 0.425045 -0.707605)
(0.000500431 5.75414e-05 -1)
(0.650729 -0.276429 -0.707205)
(-0.00164416 -0.000178844 -0.999999)
(0.704513 -0.057818 -0.707332)
(0.677422 0.201962 -0.707327)
(-0.000632814 -2.27705e-05 -1)
(-0.299314 -0.639772 -0.707886)
(-0.000342078 -7.23234e-05 -1)
(-0.362226 0.605981 -0.708223)
(0.000228893 -2.79856e-05 -1)
(-0.503278 -0.495493 -0.707953)
(-0.000421999 4.06831e-05 -1)
(-0.576058 0.408797 -0.707843)
(-0.000386659 4.28882e-05 -1)
(-0.64892 -0.278922 -0.707888)
(0.00213638 -0.000221453 -0.999998)
(-0.676916 0.202857 -0.707555)
(-0.704001 -0.0607574 -0.707596)
)

// normal volume types

56
(
0
0
0
0
0
0
0
0
0
0
0
0
0
0
0
0
0
0
0
0
0
0
0
0
0
0
0
0
0
0
0
0
0
0
0
0
0
0
0
0
0
0
0
0
0
0
0
0
0
0
0
0
0
0
0
0
)

// normalDirections

30
(
2(1 -1)
2(1 -1)
2(1 -1)
2(1 -1)
2(1 -1)
2(1 -1)
2(1 -1)
2(1 -1)
2(1 -1)
2(1 -1)
2(1 -1)
2(1 -1)
2(1 -1)
2(1 -1)
2(1 -1)
2(1 -1)
2(1 -1)
2(1 -1)
2(1 -1)
2(1 -1)
2(1 -1)
2(1 -1)
2(1 -1)
2(1 -1)
2(1 -1)
2(1 -1)
2(1 -1)
2(1 -1)
2(1 -1)
2(1 -1)
)

// edgeNormals

30
(
2(0 1)
2(2 3)
2(4 5)
2(6 5)
2(7 8)
2(9 10)
2(11 12)
2(13 14)
2(15 16)
2(17 18)
2(19 18)
2(20 21)
2(22 23)
2(24 25)
2(26 27)
2(28 29)
2(30 31)
2(32 33)
2(34 35)
2(36 37)
2(38 39)
2(40 41)
2(40 42)
2(43 44)
2(45 46)
2(47 48)
2(49 50)
2(51 52)
2(53 54)
2(53 55)
)

// featurePointNormals

2
(
3(0 1 2)
3(11 12 13)
)

// featurePointEdges

2
(
2(1 0)
2(7 6)
)

// regionEdges
0()


// ************************************************************************* //
