
/*--------------------------------*- C++ -*----------------------------------*\
| =========                 |                                                 |
| \\      /  F ield         | OpenFOAM: The Open Source CFD Toolbox           |
|  \\    /   O peration     | Version:  v2206                                 |
|   \\  /    A nd           | Website:  www.openfoam.com                      |
|    \\/     M anipulation  |                                                 |
\*---------------------------------------------------------------------------*/
FoamFile
{
    version     2.0;
    format      ascii;
    class       volScalarField;
    object      Xaa;

}
// * * * * * * * * * * * * * * * * * * * * * * * * * * * * * * * * * * * * * //

dimensions      [1 -3 0 0 0 0 0];

internalField	uniform 0.9317;

boundaryField
{
    allBoundary
    {
        type            zeroGradient;
    }

    top
    {
        type            zeroGradient;
    }

    GeoTank
    {
        type            zeroGradient;
    }

    GeoShaft
    {
        type            zeroGradient;
    }
}


// ************************************************************************* //
