/*--------------------------------*- C++ -*----------------------------------*\
| =========                 |                                                 |
| \\      /  F ield         | OpenFOAM: The Open Source CFD Toolbox           |
|  \\    /   O peration     | Version:  v2212                                 |
|   \\  /    A nd           | Website:  www.openfoam.com                      |
|    \\/     M anipulation  |                                                 |
\*---------------------------------------------------------------------------*/
FoamFile
{
    version     2.0;
    format      ascii;
    class       volScalarField;
    object      p_rgh;
}
// * * * * * * * * * * * * * * * * * * * * * * * * * * * * * * * * * * * * * //

dimensions      [0 2 -2 0 0 0 0];

internalField   uniform 1e5;

boundaryField
{
    inlet
    {
        type            zeroGradient;
    }

    outlet
    {
        type            zeroGradient;
    }

    upperAtm
    {
        type            fixedValue;
        value           uniform 1e5;
    }

    ground
    {
        type            fixedFluxPressure;
        rho             rhok;
        value           uniform 1e5;
    }

    frontAtm
    {
        // type            cyclic;
        type            zeroGradient;
    }

    backAtm
    {
        // type            cyclic;
        type            zeroGradient;
    }

    buildings
    {
        type            fixedFluxPressure;
        rho             rhok;
        value           uniform 1e5;
    }

    "(buildings_surfaces_top|buildings_surfaces_ground|buildings_surfaces_east|buildings_surfaces_west|buildings_surfaces_north|buildings_surfaces_south)"
    {
        type            fixedFluxPressure;
        rho             rhok;
        value           uniform 1e5;
    }
}


// ************************************************************************* //
