/*--------------------------------*- C++ -*----------------------------------*\
| =========                 |                                                 |
| \\      /  F ield         | OpenFOAM: The Open Source CFD Toolbox           |
|  \\    /   O peration     | Version:  2212                                  |
|   \\  /    A nd           | Website:  www.openfoam.com                      |
|    \\/     M anipulation  |                                                 |
\*---------------------------------------------------------------------------*/
FoamFile
{
    version     2.0;
    format      binary;
    arch        "LSB;label=64;scalar=64";
    class       polyBoundaryMesh;
    location    "constant/polyMesh";
    object      boundary;
}
// * * * * * * * * * * * * * * * * * * * * * * * * * * * * * * * * * * * * * //

3
(
    oversetPatch
    {
        type            overset;
        nFaces          152;
        startFace       11591;
    }
    walls
    {
        type            wall;
        inGroups        1(wall);
        nFaces          314;
        startFace       11743;
    }
    frontAndBack
    {
        type            empty;
        inGroups        1(empty);
        nFaces          11650;
        startFace       12057;
    }
)

// ************************************************************************* //
