/*--------------------------------*- C++ -*----------------------------------*\
  =========                 |
  \\      /  F ield         | OpenFOAM: The Open Source CFD Toolbox
   \\    /   O peration     | Website:  https://openfoam.org
    \\  /    A nd           | Version:  6
     \\/     M anipulation  |
\*---------------------------------------------------------------------------*/
FoamFile
{
    version     2.0;
    format      ascii;
    class       featureEdgeMesh;
    location    "constant/triSurface";
    object      airfoil.eMesh;
}
// * * * * * * * * * * * * * * * * * * * * * * * * * * * * * * * * * * * * * //


// points:

114
(
(0.00025 -0.00186 -0.2)
(0.00025 -0.00186 0.2)
(0.04978 0.03372 -0.2)
(0.04978 0.03372 0.2)
(0.063128 0.085516 -0.2)
(0.063128 0.085516 0.2)
(0.09921 0.04526 -0.2)
(0.09921 0.04526 0.2)
(0.98745 0.00132 -0.2)
(0.98745 0.00132 0.2)
(0.98718 0.00037 -0.2)
(0.98718 0.00037 0.2)
(0.00127 0.00438 -0.2)
(0.00127 0.00438 0.2)
(0.00697 0.01172 -0.2)
(0.00697 0.01172 0.2)
(0.01702 0.01932 -0.2)
(0.01702 0.01932 0.2)
(0.0313 0.02677 -0.2)
(0.0313 0.02677 0.2)
(0.00457 -0.00741 -0.2)
(0.00457 -0.00741 0.2)
(0.01408 -0.01285 -0.2)
(0.01408 -0.01285 0.2)
(0.02839 -0.01759 -0.2)
(0.02839 -0.01759 0.2)
(0.04763 -0.02141 -0.2)
(0.04763 -0.02141 0.2)
(0.07182 -0.02438 -0.2)
(0.07182 -0.02438 0.2)
(0.10073 -0.0266 -0.2)
(0.10073 -0.0266 0.2)
(0.13407 -0.02809 -0.2)
(0.13407 -0.02809 0.2)
(0.1715 -0.02888 -0.2)
(0.1715 -0.02888 0.2)
(0.21268 -0.029 -0.2)
(0.21268 -0.029 0.2)
(0.25719 -0.02852 -0.2)
(0.25719 -0.02852 0.2)
(0.30456 -0.02752 -0.2)
(0.30456 -0.02752 0.2)
(0.12993 0.04961 -0.2)
(0.12993 0.04961 0.2)
(0.16442 0.05292 -0.2)
(0.16442 0.05292 0.2)
(0.2024 0.05518 -0.2)
(0.2024 0.05518 0.2)
(0.24358 0.05639 -0.2)
(0.24358 0.05639 0.2)
(0.2876 0.05658 -0.2)
(0.2876 0.05658 0.2)
(0.33405 0.05581 -0.2)
(0.33405 0.05581 0.2)
(0.35426 -0.02608 -0.2)
(0.35426 -0.02608 0.2)
(0.3825 0.05415 -0.2)
(0.3825 0.05415 0.2)
(0.40572 -0.02428 -0.2)
(0.40572 -0.02428 0.2)
(0.43249 0.05171 -0.2)
(0.43249 0.05171 0.2)
(0.45837 -0.02217 -0.2)
(0.45837 -0.02217 0.2)
(0.4835 0.04859 -0.2)
(0.4835 0.04859 0.2)
(0.51161 -0.0198 -0.2)
(0.51161 -0.0198 0.2)
(0.53499 0.04494 -0.2)
(0.53499 0.04494 0.2)
(0.56484 -0.01723 -0.2)
(0.56484 -0.01723 0.2)
(0.61748 -0.0145 -0.2)
(0.61748 -0.0145 0.2)
(0.58641 0.04086 -0.2)
(0.58641 0.04086 0.2)
(0.63717 0.03649 -0.2)
(0.63717 0.03649 0.2)
(0.66898 -0.01167 -0.2)
(0.66898 -0.01167 0.2)
(0.68673 0.03197 -0.2)
(0.68673 0.03197 0.2)
(0.73449 0.02744 -0.2)
(0.73449 0.02744 0.2)
(0.71883 -0.00887 -0.2)
(0.71883 -0.00887 0.2)
(0.77985 0.02304 -0.2)
(0.77985 0.02304 0.2)
(0.76644 -0.00628 -0.2)
(0.76644 -0.00628 0.2)
(0.82224 0.01884 -0.2)
(0.82224 0.01884 0.2)
(0.81118 -0.00403 -0.2)
(0.81118 -0.00403 0.2)
(0.86112 0.01494 0.2)
(0.86112 0.01494 -0.2)
(0.85241 -0.0022 -0.2)
(0.85241 -0.0022 0.2)
(0.896 0.01139 -0.2)
(0.896 0.01139 0.2)
(0.88957 -0.00082 -0.2)
(0.88957 -0.00082 0.2)
(0.92639 0.00824 -0.2)
(0.92639 0.00824 0.2)
(0.9221 8e-05 -0.2)
(0.9221 8e-05 0.2)
(0.95193 0.00547 -0.2)
(0.95193 0.00547 0.2)
(0.94952 0.00052 -0.2)
(0.94952 0.00052 0.2)
(0.97235 0.0031 -0.2)
(0.97235 0.0031 0.2)
(0.97134 0.00057 -0.2)
(0.97134 0.00057 0.2)
)


// edges:

120
(
(2 3)
(6 7)
(1 0)
(4 5)
(8 9)
(11 10)
(0 12)
(13 1)
(12 14)
(15 13)
(14 16)
(17 15)
(16 18)
(19 17)
(18 2)
(3 19)
(2 4)
(5 3)
(4 6)
(7 5)
(20 0)
(1 21)
(22 20)
(21 23)
(24 22)
(23 25)
(26 24)
(25 27)
(28 26)
(27 29)
(30 28)
(29 31)
(32 30)
(31 33)
(34 32)
(33 35)
(36 34)
(35 37)
(38 36)
(37 39)
(40 38)
(39 41)
(6 42)
(43 7)
(42 44)
(45 43)
(44 46)
(47 45)
(46 48)
(49 47)
(48 50)
(51 49)
(50 52)
(53 51)
(54 40)
(41 55)
(52 56)
(57 53)
(58 54)
(55 59)
(56 60)
(61 57)
(62 58)
(59 63)
(60 64)
(65 61)
(66 62)
(63 67)
(64 68)
(69 65)
(70 66)
(67 71)
(72 70)
(71 73)
(68 74)
(75 69)
(74 76)
(77 75)
(78 72)
(73 79)
(76 80)
(81 77)
(80 82)
(83 81)
(84 78)
(79 85)
(82 86)
(87 83)
(88 84)
(85 89)
(86 90)
(91 87)
(92 88)
(89 93)
(94 91)
(90 95)
(96 92)
(93 97)
(95 98)
(99 94)
(100 96)
(97 101)
(98 102)
(103 99)
(104 100)
(101 105)
(102 106)
(107 103)
(108 104)
(105 109)
(106 110)
(111 107)
(112 108)
(109 113)
(110 8)
(9 111)
(10 112)
(113 11)
(8 10)
(11 9)
)

// * * * * * * * * * * * * * * * * * * * * * * * * * * * * * * * * * * * * * //


// ************************************************************************* //
