/*--------------------------------*- C++ -*----------------------------------*\
| =========                 |                                                 |
| \\      /  F ield         | OpenFOAM: The Open Source CFD Toolbox           |
|  \\    /   O peration     | Version:  2206                                  |
|   \\  /    A nd           | Website:  www.openfoam.com                      |
|    \\/     M anipulation  |                                                 |
\*---------------------------------------------------------------------------*/
FoamFile
{
    version     2.0;
    format      ascii;
    arch        "LSB;label=64;scalar=64";
    class       polyBoundaryMesh;
    location    "constant/polyMesh";
    object      boundary;
}
// * * * * * * * * * * * * * * * * * * * * * * * * * * * * * * * * * * * * * //

6
(
    front
    {
        type            empty;
        inGroups        1(empty);
        nFaces          250000;
        startFace       499000;
    }
    back
    {
        type            empty;
        inGroups        1(empty);
        nFaces          250000;
        startFace       749000;
    }
    top
    {
        type            patch;
        nFaces          500;
        startFace       999000;
    }
    bottom
    {
        type            patch;
        nFaces          500;
        startFace       999500;
    }
    left
    {
        type            patch;
        nFaces          500;
        startFace       1000000;
    }
    right
    {
        type            patch;
        nFaces          500;
        startFace       1000500;
    }
)

// ************************************************************************* //
