/*--------------------------------*- C++ -*----------------------------------*\
| =========                 |                                                 |
| \\      /  F ield         | OpenFOAM: The Open Source CFD Toolbox           |
|  \\    /   O peration     | Version:  2.2.2                               |
|   \\  /    A nd           | Web:      www.OpenFOAM.org                      |
|    \\/     M anipulation  |                                                 |
\*---------------------------------------------------------------------------*/
FoamFile
{
    version     2.0;
    format      ascii;
    class       dictionary;
    location    "system";
    object      controlDict;
}
// * * * * * * * * * * * * * * * * * * * * * * * * * * * * * * * * * * * * * //

application     buoyantBoussinesqPimpleFoam; //urbanMicroclimateFoam;

startFrom       latestTime;

startTime       0;

stopAt          endTime;

endTime         600;
deltaT          0.1;

// endTime         86400;
// deltaT          3600;

// writeControl    timeStep;
writeControl    adjustable;

writeInterval   10;

purgeWrite      0;

writeFormat     ascii;

writePrecision  8;

writeCompression on;

timeFormat      general;

timePrecision   8;

runTimeModifiable true;

adjustTimeStep  true;

maxCo           10.0;

maxDeltaT       1.0;

functions
{
    


    // probes
    // {   
    //     // Where to load it from
    //     libs            ("libsampling.so");

    //     type            probes;

    //     // Name of the directory for probe data
    //     name            probes;

    //     // Write at same frequency as fields
    //     writeControl    timeStep;
    //     writeInterval   10;  

    //     // Fields to be probed
    //     fields          (T U); 
    //     region air;

    //     probeLocations
    //     (
    //         (100.595 86.3716 2.0)
    //         (119.398 86.1579 2.0)
    //     );
    // }    
}


// ************************************************************************* //
