/*--------------------------------*- C++ -*----------------------------------*\
  =========                 |
  \\      /  F ield         | OpenFOAM: The Open Source CFD Toolbox
   \\    /   O peration     | Website:  https://openfoam.org
    \\  /    A nd           | Version:  6
     \\/     M anipulation  |
\*---------------------------------------------------------------------------*/
FoamFile
{
    version     2.0;
    format      ascii;
    class       dictionary;
    object      fvSolution;
}
// * * * * * * * * * * * * * * * * * * * * * * * * * * * * * * * * * * * * * //

solvers
{
    p_rgh
    {
        solver          GAMG;
        smoother        GaussSeidel;
        tolerance       1e-6;
        relTol          0.1;
    }

    p_rghFinal
    {
        $p_rgh;
        relTol          0;
    }

    "(U|T|k|omega|epsilon|R)"
    {
        // solver          smoothSolver;
        // smoother        symGaussSeidel;
        // tolerance       1e-6;
        // relTol          0.1;
        solver          PBiCGStab;
        preconditioner  DILU;
        tolerance       1e-6;
        relTol          0.1;
    }

    "(U|T|k|omega|epsilon|R)Final"
    {
        $U;
        relTol          0;
    }
}

PIMPLE
{
    momentumPredictor no;
    nOuterCorrectors 1;
    nCorrectors     2;
    nNonOrthogonalCorrectors 0;
    pRefCell        0;
    pRefValue       0;
}

relaxationFactors
{
    equations
    {
        U               0.9; // 0.9 is more stable but 0.95 less convergent
    }
}

// potentialFlow
// {
//     nNonOrthogonalCorrectors 10;
// }


// ************************************************************************* //
