/*--------------------------------*- C++ -*----------------------------------*\
| =========                 |                                                 |
| \\      /  F ield         | OpenFOAM: The Open Source CFD Toolbox           |
|  \\    /   O peration     | Version:  v2212                                 |
|   \\  /    A nd           | Website:  www.openfoam.com                      |
|    \\/     M anipulation  |                                                 |
\*---------------------------------------------------------------------------*/
FoamFile
{
    version     2.0;
    format      ascii;
    class       dictionary;
    object      setFieldsDict;
}
// * * * * * * * * * * * * * * * * * * * * * * * * * * * * * * * * * * * * * //

defaultFieldValues
(
    volScalarFieldValue alpha.fluid    0.0
    volScalarFieldValue alpha.Gch4     1.0
    volScalarFieldValue alpha.Gh2      0.0
    volScalarFieldValue alpha.Gco2     0.0
);

regions
(
    // sphereToCell
    // {
    //     centre (0.3 0.3 -0.005);
    //     radius 0.05;
    //     fieldValues
    //     (
    //         volScalarFieldValue alpha.fluid    0
    //         volScalarFieldValue alpha.Gch4     0.2
    //         volScalarFieldValue alpha.Gh2      0.4
    //         volScalarFieldValue alpha.Gco2     0.4
    //     );
    // }

    boxToCell
    {
        box (0  0.5  -0.01) (1  1.0  0.0);
        fieldValues
        (
            volScalarFieldValue alpha.fluid    0.0
            volScalarFieldValue alpha.Gch4     0.0
            volScalarFieldValue alpha.Gh2      1.0
            volScalarFieldValue alpha.Gco2     0.0
        );
    }

    // boxToCell
    // {
    //     box (0 0 0) (1 0.08 1);
    //     fieldValues
    //     (
    //         volScalarFieldValue alpha.liquid 1
    //         volScalarFieldValue alpha.gas    0
    //         volScalarFieldValue T            365
    //     );
    // }
);


// ************************************************************************* //
