/*--------------------------------*- C++ -*----------------------------------*\
| =========                 |                                                 |
| \\      /  F ield         | OpenFOAM: The Open Source CFD Toolbox           |
|  \\    /   O peration     | Version:  2.4.0                                 |
|   \\  /    A nd           | Web:      www.OpenFOAM.org                      |
|    \\/     M anipulation  |                                                 |
\*---------------------------------------------------------------------------*/
FoamFile
{
    version     2.0;
    format      ascii;
    class       volScalarField;
    location    "0/air";
    object      w;
}
// * * * * * * * * * * * * * * * * * * * * * * * * * * * * * * * * * * * * * //

dimensions      [0 0 0 0 0 0 0];

internalField   uniform 0.0075; 

boundaryField
{
    inlet
    {
        type            uniformFixedValue;
        uniformValue    tableFile;
        uniformValueCoeffs
        {
            file        "$FOAM_CASE/0/air/wambient";
        }
        value           uniform 0.0075; 
    }
    outlet
    {
        type            inletOutlet;
        inletValue      uniform 0.0075;
        value           uniform 0.0075; 
    }
    top
    {
        type            slip;
    }
    ground
    {
        type            zeroGradient;
    }
    air_to_street
    {
        type            compressible::CFDHAMfluidMoistureCoupledImpermeable;
        value           uniform 0.008;
    }
    air_to_windward
    {
        type            compressible::CFDHAMfluidMoistureCoupledImpermeable;
        value           uniform 0.008;
    }
    air_to_leeward
    {
        type            compressible::CFDHAMfluidMoistureCoupledImpermeable;
        value           uniform 0.008;
    }
    side1
    {
        type            slip;
    }
    side2
    {
        type            slip;
    }
    buildings
    {
        type            zeroGradient;
    }
}


// ************************************************************************* //
