/*--------------------------------*- C++ -*----------------------------------*\
| =========                 |                                                 |
| \\      /  F ield         | OpenFOAM: The Open Source CFD Toolbox           |
|  \\    /   O peration     | Version:  2206                                  |
|   \\  /    A nd           | Website:  www.openfoam.com                      |
|    \\/     M anipulation  |                                                 |
\*---------------------------------------------------------------------------*/
FoamFile
{
    version     2.0;
    format      ascii;
    arch        "LSB;label=64;scalar=64";
    class       featureEdgeMesh;
    location    "constant/triSurface";
    object      GeoShaft_s.eMesh;
}
// * * * * * * * * * * * * * * * * * * * * * * * * * * * * * * * * * * * * * //


// points:

825
(
(9.0553 5.41949 -78.1726)
(-0.761666 9.99389 -70.6304)
(7.65335 6.48701 -80.5481)
(1.79117 -9.86957 -80.5531)
(-9.4428 3.38379 -80.5531)
(-9.05531 5.41951 79.2526)
(0.761665 9.99389 71.7104)
(-7.65335 6.487 81.6282)
(9.4428 3.3838 81.6331)
(-1.79117 -9.86957 81.6331)
(7.98317 6.80832 -76.4956)
(8.9714 5.08062 -78.1803)
(9.00396 4.43843 -78.1651)
(1.91737 10.4372 -69.0408)
(1.87765 10.2033 -68.835)
(1.82131 9.85979 -68.2013)
(2.02034 10.8589 -69.1603)
(0.192772 10.5549 -70.6144)
(-0.118239 10.2673 -70.6154)
(7.90938 6.69305 -79.9186)
(8.26807 6.99164 -79.6115)
(9.60476 26.6982 -70.0611)
(12.4824 31.654 -69.876)
(12.9971 33.0923 -69.4817)
(13.0127 34.6403 -68.4644)
(12.8007 35.2628 -67.8126)
(12.5434 35.6549 -67.2646)
(12.1633 35.9811 -66.6201)
(7.48207 20.2675 -68.8522)
(13.7863 31.0957 -68.4632)
(14.1475 31.9367 -68.2966)
(14.3937 33.0245 -67.8469)
(14.3972 33.9166 -67.2588)
(14.1433 34.8224 -66.377)
(13.5927 35.4682 -65.3385)
(-7.00475 -7.15824 -65.4578)
(-8.41409 -5.4273 -65.4558)
(1.9209 -10.6561 -79.6115)
(1.84166 -10.1962 -79.9186)
(-0.417513 -10.1201 -78.1684)
(-0.0857452 -10.3098 -78.1803)
(0.165765 -10.5519 -78.1726)
(8.37319 -7.152 -69.1623)
(8.12493 -6.91898 -69.065)
(7.84307 -6.67797 -68.7746)
(7.64999 -6.4788 -68.0936)
(8.99833 -5.33069 -70.6129)
(8.95759 -4.91491 -70.6021)
(21.1333 -26.5723 -69.8916)
(22.1602 -27.802 -69.4817)
(23.493 -28.5894 -68.4644)
(24.1381 -28.7171 -67.8126)
(24.6063 -28.6904 -67.2646)
(25.0789 -28.5242 -66.6201)
(13.8111 -16.6134 -68.8522)
(20.0365 -27.4872 -68.4632)
(20.5843 -28.2204 -68.2966)
(21.4033 -28.9776 -67.8469)
(22.174 -29.4266 -67.2588)
(23.0854 -29.6597 -66.377)
(23.92 -29.5057 -65.3385)
(-10.189 3.66456 -79.6115)
(-9.75111 3.50322 -79.9185)
(-8.88575 5.2291 -78.1803)
(-9.22107 5.13238 -78.1726)
(-8.35273 5.57314 -78.1651)
(-10.3804 -3.67539 -69.1623)
(-10.0545 -3.57689 -69.065)
(-9.78952 -3.47421 -68.8574)
(-9.54856 -3.39128 -68.4603)
(-9.31734 -5.10485 -70.6193)
(-8.88833 -5.20739 -70.6051)
(-8.25676 -5.66908 -70.6263)
(-26.3808 -5.03646 -70.1075)
(-33.6544 -5.01689 -69.876)
(-35.1573 -5.29028 -69.4817)
(-36.5057 -6.05082 -68.4644)
(-36.9388 -6.54566 -67.8126)
(-37.1497 -6.96449 -67.2646)
(-37.2441 -7.47864 -66.5943)
(-21.2932 -3.65409 -68.8522)
(-33.8229 -3.60856 -68.4632)
(-34.7318 -3.71631 -68.2966)
(-35.7969 -4.04698 -67.8469)
(-36.5712 -4.48993 -67.2588)
(-37.2287 -5.16273 -66.377)
(-37.5127 -5.96248 -65.3385)
(-7.98313 6.80836 77.5756)
(-8.9714 5.08066 79.2603)
(-9.00396 4.43842 79.2451)
(-2.02035 10.859 70.2403)
(-1.91737 10.4372 70.1208)
(-1.87765 10.2033 69.915)
(-1.82131 9.8598 69.2814)
(-0.192881 10.5551 71.6944)
(0.118223 10.2673 71.6954)
(-8.26805 6.99161 80.6915)
(-7.90937 6.69304 80.9986)
(-25.554 36.9047 80.6323)
(-26.1187 38.8244 80.1615)
(-26.1768 40.8081 79.2199)
(-25.5694 42.5005 77.8475)
(-24.6842 43.4691 76.6147)
(-9.6043 26.6974 71.1411)
(-12.4825 31.6541 70.956)
(-12.9971 33.0923 70.5617)
(-13.0127 34.6401 69.5446)
(-12.8007 35.2626 68.8928)
(-12.5436 35.6547 68.3449)
(-12.1678 35.9778 67.7072)
(-7.48177 20.267 69.9322)
(-13.7863 31.0957 69.5433)
(8.43351 5.4011 66.5376)
(7.36741 6.76175 66.54)
(10.189 3.66456 80.6915)
(9.75111 3.50322 80.9985)
(8.88576 5.22909 79.2603)
(9.2211 5.13237 79.2526)
(8.35274 5.57313 79.2451)
(10.3804 -3.6754 70.2423)
(10.0544 -3.57688 70.145)
(9.78953 -3.47422 69.9374)
(9.54857 -3.39128 69.5403)
(9.31736 -5.10484 71.6993)
(8.88832 -5.2074 71.6851)
(8.25675 -5.66909 71.7063)
(44.7374 3.67804 80.6323)
(46.6823 3.20728 80.1615)
(48.4292 2.2657 79.2199)
(49.5912 0.893396 77.8476)
(49.9875 -0.357461 76.6147)
(26.3805 -5.03646 71.1875)
(33.6545 -5.01689 70.956)
(35.1573 -5.29028 70.5617)
(36.5055 -6.05069 69.5446)
(36.9387 -6.54556 68.8928)
(37.1496 -6.96424 68.3449)
(37.2415 -7.45127 67.7072)
(21.2926 -3.65409 69.9322)
(33.8228 -3.60855 69.5433)
(0.417511 -10.1201 79.2484)
(0.0857271 -10.3098 79.2603)
(-0.16578 -10.5519 79.2526)
(-8.12493 -6.91898 70.145)
(-8.37321 -7.15203 70.2423)
(-7.64999 -6.4788 69.1736)
(-7.84308 -6.67798 69.8546)
(-8.99832 -5.33061 71.6929)
(-8.95758 -4.91494 71.6821)
(-1.92089 -10.6561 80.6915)
(-1.84165 -10.1962 80.9987)
(-13.811 -16.6132 69.9322)
(-20.5845 -28.2201 69.377)
(-20.0365 -27.4871 69.5433)
(-21.4032 -28.9775 68.9269)
(-22.1738 -29.4266 68.3389)
(-23.0854 -29.6597 67.4571)
(-23.9209 -29.5055 66.4165)
(-20.4993 -43.5374 78.1416)
(-22.2349 -44.073 76.9063)
(-18.8174 -42.2675 78.9633)
(-17.774 -41.0057 79.2359)
(-23.7812 -43.9568 75.5042)
(-19.1834 -40.5827 80.6323)
(5.00081 0.390046 215.54)
(4.80254 -1.41644 215.54)
(3.99721 3.00371 215.54)
(4.70005 1.72167 215.54)
(3.22684 3.83852 215.54)
(1.98499 4.59679 215.54)
(0.273711 5.00717 215.54)
(-1.00013 4.89895 215.54)
(-4.13452 -2.82425 215.54)
(-4.81609 -1.36964 215.54)
(-3.16223 -3.87303 215.54)
(-2.21445 -4.49921 215.54)
(-1.00013 -4.89895 215.54)
(-0.0243625 -5.007 215.54)
(1.39109 -4.80259 215.54)
(3.70547 -3.37878 215.54)
(2.3053 -4.4448 215.54)
(4.42728 -2.32362 215.54)
(-3.74256 3.31561 215.54)
(-2.7892 4.16738 215.54)
(-1.77303 4.67508 215.54)
(-4.5999 1.95983 215.54)
(-4.22595 2.67233 215.54)
(-4.85471 1.19658 215.54)
(-4.98379 0.402334 215.54)
(-4.98379 -0.402332 215.54)
(27.4549 39.5217 -77.0616)
(26.9083 41.643 -75.5277)
(27.1961 37.4301 -77.8833)
(26.625 35.8956 -78.1559)
(25.862 42.7887 -74.0752)
(25.5694 42.5005 -76.7675)
(24.7089 43.4558 -75.5668)
(26.1768 40.8081 -78.1399)
(26.1187 38.8243 -79.0815)
(25.5539 36.9047 -79.5523)
(20.4993 -43.5374 -77.0616)
(22.6098 -44.1248 -75.5277)
(18.8174 -42.2675 -77.8833)
(17.774 -41.0057 -78.1559)
(24.1251 -43.7915 -74.0752)
(24.0219 -43.394 -76.7676)
(25.2794 -43.1264 -75.5668)
(22.2524 -43.0738 -78.1399)
(20.5635 -42.0316 -79.0815)
(19.1834 -40.5827 -79.5523)
(-36.8196 -9.53511 -60.7654)
(-36.8375 -9.32981 -64.2107)
(-36.1791 -11.6576 -61.1704)
(-35.2465 -14.2848 -54.4914)
(-35.0331 -14.7527 -57.0238)
(-33.3857 -18.2087 -52.2161)
(-33.3686 -18.1993 -49.0267)
(-29.9339 -23.415 -41.1707)
(-27.7313 -26.0039 -36.8995)
(-26.7935 -26.9589 -38.4071)
(-28.9182 -24.6591 -42.344)
(-25.1933 -28.4609 -32.463)
(-22.5968 -30.5676 -28.2401)
(-20.0591 -32.2965 -24.4003)
(-17.6164 -33.6828 -24.0547)
(-20.9047 -31.7601 -28.8517)
(-17.2248 -33.8899 -20.3149)
(-14.0012 -35.3556 -19.0542)
(-14.2152 -35.2506 -16.1866)
(-10.6108 -36.5037 -11.3703)
(-6.40655 -37.4726 -5.94987)
(-3.6944 -37.8306 -5.69816)
(-6.87968 -37.3822 -9.7404)
(-2.88263 -37.9019 -1.49147)
(3.50575 -37.8465 6.55056)
(6.70685 -37.4198 10.6026)
(7.97982 -37.1612 9.04067)
(4.11633 -37.7998 4.12241)
(10.0943 -36.6428 14.9644)
(13.1794 -35.6521 19.0398)
(16.0147 -34.478 22.8973)
(19.0765 -32.8839 27.233)
(19.9551 -32.3522 25.338)
(16.9409 -34.0327 21.0053)
(21.1007 -31.6049 30.2377)
(22.9911 -30.2619 33.1558)
(25.8111 -27.8977 37.7783)
(27.8678 -25.8422 41.4346)
(30.1817 -23.1053 45.9265)
(34.1613 -16.6684 52.2804)
(32.3635 -19.9681 47.5473)
(32.327 -20.0259 50.6507)
(34.5029 -15.9407 56.4674)
(35.5855 -13.3389 60.0111)
(36.7033 -9.86295 64.598)
(37.5129 -5.96331 66.4166)
(36.7304 -9.84407 61.4479)
(35.5532 -13.4586 56.6662)
(29.6528 -23.7781 41.6766)
(27.7902 -25.9427 38.0855)
(25.2215 -28.433 33.5949)
(22.9027 -30.3422 29.8163)
(14.3206 -35.2161 17.386)
(11.1471 -36.3449 13.1555)
(0.258905 -38.0108 2.45909)
(-0.159432 -38.016 -1.25437)
(-9.84481 -36.7196 -13.5623)
(-24.4095 -29.1443 -34.3432)
(-31.0191 -21.9787 -46.622)
(-31.735 -20.9148 -45.0441)
(-49.9851 1.05852 -74.131)
(-49.6467 2.20234 -75.2481)
(-49.5912 0.893405 -76.7676)
(-49.9864 -0.355846 -75.5454)
(-48.7697 3.36421 -76.41)
(-48.7609 1.94535 -77.8196)
(-47.5077 2.84236 -78.7166)
(-47.5012 4.25033 -77.2961)
(-46.0135 4.83747 -77.8833)
(-45.8646 3.46252 -79.3367)
(-44.399 5.1101 -78.1559)
(-44.3445 3.69727 -79.5715)
(-21.1333 -26.5724 70.9716)
(-24.0219 -43.394 77.8475)
(-25.3033 -43.1117 76.6147)
(-22.2524 -43.0738 79.2199)
(-20.5636 -42.0317 80.1615)
(-25.0738 -28.5265 67.7072)
(-24.606 -28.6904 68.3449)
(-24.138 -28.7171 68.8928)
(-23.4928 -28.5894 69.5446)
(-22.1602 -27.802 70.5617)
(8.72396 37.0118 -62.1075)
(11.8215 36.1205 -62.973)
(9.3345 36.8461 -59.7113)
(5.81853 37.5645 -55.2044)
(2.89554 37.9023 -51.5075)
(-0.156677 38.0157 -50.8568)
(3.62487 37.8578 -55.6173)
(-3.52283 37.8528 -46.6241)
(-0.487158 38.0071 -47.2533)
(-4.41814 37.7552 -42.3024)
(-7.84566 37.1957 -41.1217)
(-14.6046 35.0992 -32.2276)
(-11.3415 36.2767 -36.5834)
(-12.0512 36.0485 -32.463)
(-15.1739 34.8532 -28.2401)
(-17.5471 33.7231 -28.1545)
(-17.8457 33.5603 -24.5255)
(-20.3457 32.1079 -24.0849)
(-25.659 28.051 -15.6796)
(-22.9988 30.2604 -20.0217)
(-23.4203 29.936 -16.1865)
(-26.3077 27.4411 -11.3704)
(-28.0209 25.6776 -11.4808)
(-31.9581 20.5889 -3.37973)
(-30.0615 23.2643 -7.50009)
(-31.3827 21.4473 -1.49144)
(-33.0477 18.7812 2.459)
(-33.6624 17.6662 0.869479)
(-34.529 15.8872 6.55058)
(-35.465 13.6893 6.36399)
(-37.3896 6.87385 15.2648)
(-36.6028 10.2365 10.9284)
(-36.7807 9.57956 14.9644)
(-37.4653 6.41229 19.0399)
(-37.8388 3.66033 19.3333)
(-37.8519 3.45006 22.7956)
(-38.0143 0.317085 23.5533)
(-37.9004 -2.97985 27.6918)
(-37.5426 -5.9609 31.4649)
(-36.8315 -9.42012 35.9016)
(-35.9812 -12.2689 39.6385)
(-34.676 -15.5841 44.1135)
(-35.1006 -14.5854 45.9265)
(-33.5064 -17.9831 50.6507)
(-33.0705 -18.7381 48.55)
(-29.432 -24.0608 56.6665)
(-31.5155 -21.251 52.2814)
(-30.9029 -22.1261 56.8132)
(-29.3446 -24.1485 60.0111)
(-26.8903 -26.8875 61.448)
(-26.8932 -26.8545 64.598)
(-8.65436 37.018 -36.8995)
(-20.7372 31.8621 -20.3148)
(-29.2489 24.2846 -5.94994)
(-35.7599 12.9016 10.6026)
(-38.0166 -0.0788954 27.2331)
(-37.921 -2.47129 30.2377)
(-37.7042 -4.86526 33.2621)
(-37.0657 -8.40416 37.7782)
(-36.2551 -11.4448 41.7367)
(-27.6314 -41.6973 71.2189)
(-27.3157 -41.8835 74.3177)
(-31.6388 -38.7419 66.4632)
(-30.6474 -39.5386 70.4397)
(-34.2322 -36.4721 65.9368)
(-34.3535 -36.3257 62.9888)
(-36.8248 -33.8572 59.66)
(-36.8995 -33.7388 62.2886)
(-40.0087 -30.0279 54.9038)
(-39.2121 -31.0647 58.9141)
(-42.1265 -26.9853 54.1261)
(-42.8948 -25.7458 49.9698)
(-44.6676 -22.5229 49.2154)
(-45.1622 -21.5046 45.3793)
(-46.2074 -19.1156 45.6496)
(-46.8634 -17.4258 41.1914)
(-47.4644 -15.7402 42.2102)
(-48.7417 -11.2256 37.7269)
(-48.7206 -11.217 34.9624)
(-47.8606 -14.5323 38.2344)
(-49.4424 -7.51146 31.3501)
(-49.6133 -6.39047 33.0402)
(-50.0099 -1.26775 28.1266)
(-49.9719 2.16222 22.093)
(-49.9441 -2.5819 26.6169)
(-49.8951 3.48374 23.5945)
(-49.5227 7.03646 17.4188)
(-49.318 8.31814 18.9505)
(-48.5923 11.8652 12.7227)
(-48.5539 11.9201 15.4149)
(-47.5471 15.5021 11.8741)
(-47.1946 16.5728 8.03333)
(-45.7794 20.1368 7.14135)
(-45.3413 21.1227 3.34184)
(-43.5833 24.5399 2.4371)
(-43.0449 25.4785 -1.36043)
(-40.9626 28.7054 -2.26264)
(-40.3249 29.5958 -6.07298)
(-37.9414 32.5893 -6.96692)
(-37.2211 33.4152 -10.7728)
(-34.5238 36.1855 -11.7009)
(-33.7643 36.9046 -15.4633)
(-30.7671 39.4297 -16.4372)
(-29.9826 40.0378 -20.1529)
(-26.7366 42.2715 -21.1518)
(-25.9053 42.7891 -24.8501)
(-22.4351 44.7081 -25.873)
(-21.5643 45.1329 -29.5614)
(-17.9415 46.6914 -30.5686)
(-17.0199 47.035 -34.266)
(-13.23 48.2335 -35.2984)
(-11.0845 48.8012 -40.1801)
(-9.61868 49.0636 -38.8378)
(-5.43486 49.7168 -45.6403)
(3.50209 49.8834 -54.1906)
(-0.498282 50.0144 -50.3642)
(7.08746 49.5164 -57.6256)
(-5.92935 49.6682 -42.4028)
(-1.46045 49.9982 -46.6823)
(2.53942 49.9382 -50.5056)
(6.02848 49.6577 -53.8512)
(10.6709 48.8531 -61.1103)
(14.3629 47.9154 -64.7441)
(10.3049 48.9464 -57.9762)
(13.103 48.2755 -60.7256)
(16.6368 47.1528 -64.2861)
(18.5299 46.4417 -68.9477)
(19.9776 45.8578 -67.6926)
(21.1904 45.3118 -71.7245)
(23.5298 44.1194 -71.4648)
(-14.1471 31.9368 69.377)
(-14.3937 33.0245 68.9269)
(-14.3972 33.9164 68.3389)
(-14.1433 34.8224 67.4571)
(-13.5921 35.4688 66.4165)
(-27.4549 39.5216 78.1416)
(-27.0509 41.2925 76.9063)
(-27.1961 37.4301 78.9633)
(-26.625 35.8956 79.2359)
(-26.1771 42.5736 75.5042)
(27.6911 -26.0611 -62.1075)
(25.3705 -28.2979 -62.973)
(27.2425 -26.5069 -59.7112)
(29.6225 -23.8212 -55.2044)
(31.3765 -21.4587 -51.5075)
(33.001 -18.8721 -50.8567)
(30.9733 -22.0681 -55.6173)
(34.5429 -15.8755 -46.6241)
(33.1587 -18.5817 -47.2533)
(34.9061 -15.0514 -42.3024)
(36.1353 -11.8033 -41.1216)
(37.6991 -4.9016 -32.2276)
(37.0872 -8.31632 -36.5835)
(37.2445 -7.5877 -32.4631)
(37.7707 -4.28562 -28.2401)
(37.9786 -1.66528 -28.1545)
(37.9869 -1.32532 -24.5255)
(37.9791 1.56591 -24.0849)
(37.1223 8.19582 -15.6796)
(37.7057 4.7874 -20.0216)
(37.6355 5.31467 -16.1864)
(36.9186 9.06257 -11.3704)
(36.2479 11.4279 -11.4809)
(33.8096 17.382 -3.37974)
(35.1783 14.4019 -7.50006)
(34.2653 16.4545 -1.49147)
(32.7889 19.2295 2.45899)
(32.1306 20.3194 0.869481)
(31.0232 21.9594 6.55058)
(29.5878 23.8689 6.36394)
(24.6478 28.9434 15.2648)
(27.1665 26.5808 10.9284)
(26.6864 27.0633 14.9645)
(24.2859 29.2397 19.0398)
(22.0894 30.9391 19.3332)
(21.9138 31.0556 22.7956)
(19.2817 32.7628 23.5533)
(16.3696 34.3126 27.6917)
(13.609 35.4933 31.4649)
(10.2576 36.6071 35.9016)
(7.3655 37.2951 39.6385)
(3.8418 37.8223 44.1134)
(4.91892 37.6908 45.9265)
(1.17943 38.0089 50.6507)
(0.30756 38.0089 48.5499)
(-6.12136 37.5193 56.6665)
(-2.64622 37.9187 52.2814)
(-3.4464 37.8508 56.4674)
(-6.24092 37.4874 60.0111)
(-9.84009 36.7314 61.4481)
(-9.81007 36.7174 64.598)
(36.3857 -11.0141 -36.8995)
(37.9619 2.02792 -20.3148)
(35.6556 13.188 -5.94997)
(29.0531 24.5182 10.6026)
(18.94 32.9628 27.2331)
(16.8203 34.0762 30.2377)
(14.6386 35.0854 33.2621)
(11.2546 36.3019 37.7782)
(8.21604 37.1203 41.7368)
(-22.2953 44.7781 71.219)
(-22.6143 44.5979 74.3177)
(-17.7321 46.7709 66.4633)
(-18.9177 46.3107 70.4397)
(-14.4697 47.882 65.9368)
(-14.2822 47.9138 62.9888)
(-10.9089 48.8198 59.66)
(-10.7689 48.8253 62.2887)
(-6.00048 49.6625 54.9037)
(-7.29679 49.491 58.9141)
(-2.30673 49.9752 54.1261)
(-0.849091 50.0208 49.9698)
(2.82832 49.9447 49.2155)
(3.95753 49.8639 45.3793)
(6.54923 49.5745 45.6495)
(8.34055 49.2978 41.1914)
(10.1007 48.9755 42.2103)
(14.6493 47.8244 37.7269)
(14.646 47.8018 34.9625)
(11.345 48.7147 38.2343)
(18.2161 46.5741 31.3501)
(19.2723 46.1616 33.0402)
(23.9071 43.9437 28.1265)
(26.8585 42.1957 22.0929)
(22.736 44.5438 26.617)
(27.9645 41.4686 23.5945)
(30.855 39.3697 17.4188)
(31.8626 38.5517 18.9507)
(34.5717 36.1496 12.7228)
(34.6001 36.0888 15.4148)
(37.1987 33.426 11.8741)
(37.9498 32.5853 8.03332)
(40.3287 29.5777 7.14131)
(40.9634 28.7053 3.34186)
(43.0438 25.4742 2.43704)
(43.5875 24.5387 -1.36045)
(45.3409 21.122 -2.2626)
(45.7932 20.1244 -6.07304)
(47.1939 16.5635 -6.96697)
(47.549 15.5268 -10.7729)
(48.5995 11.8058 -11.7008)
(48.8425 10.7885 -15.4632)
(49.5307 6.9302 -16.4372)
(49.6651 5.94676 -20.153)
(49.9765 2.01875 -21.1519)
(50.0091 1.04006 -24.8501)
(49.9359 -2.9247 -25.873)
(49.8684 -3.89114 -29.5613)
(49.4067 -7.80788 -30.5686)
(49.2434 -8.77782 -34.266)
(48.3865 -12.6592 -35.2984)
(47.8053 -14.8011 -40.1801)
(47.2997 -16.2018 -38.8378)
(45.7734 -20.1518 -45.6404)
(41.4492 -27.9746 -54.1905)
(43.5629 -24.5756 -50.3641)
(39.3387 -30.8961 -57.6256)
(45.9786 -19.6991 -42.4028)
(44.03 -23.7344 -46.6823)
(41.978 -27.1683 -50.5056)
(39.9905 -30.0497 -53.8512)
(36.5596 -34.1209 -61.6662)
(34.3145 -36.3963 -64.7441)
(37.2364 -33.3975 -57.9762)
(35.2563 -35.4853 -60.7256)
(32.5171 -37.9843 -64.2861)
(31.6369 -38.7248 -68.1359)
(29.7251 -40.2301 -67.6927)
(28.6459 -41.0073 -71.7245)
(26.4437 -42.4371 -71.4648)
(49.9862 1.04207 75.1995)
(49.6467 2.20235 76.3281)
(48.7697 3.3642 77.49)
(47.5011 4.25036 78.3761)
(46.0134 4.83747 78.9633)
(44.399 5.1101 79.2359)
(37.2287 -5.16271 67.4571)
(36.5711 -4.48982 68.3389)
(34.7316 -3.71661 69.377)
(35.7969 -4.04696 68.9269)
(49.9266 -3.08054 71.2192)
(49.9301 -2.71439 74.3177)
(49.3708 -8.0291 66.4632)
(49.5651 -6.77223 70.4397)
(48.7018 -11.4099 65.9368)
(48.6357 -11.5882 62.9888)
(47.7336 -14.9626 59.66)
(47.6684 -15.0865 62.2887)
(46.0093 -19.6344 54.9039)
(46.5089 -18.4263 58.9141)
(44.4332 -22.99 54.126)
(43.7439 -24.275 49.9698)
(41.8392 -27.4218 49.2154)
(41.2147 -28.3444 45.3921)
(39.6582 -30.459 45.6495)
(39.0306 -31.242 41.9279)
(37.3636 -33.2353 42.2102)
(34.0925 -36.5988 37.7269)
(34.0742 -36.5851 34.9618)
(36.5159 -34.1822 38.2347)
(31.199 -39.0842 31.3219)
(30.3409 -39.7711 33.0402)
(26.1029 -42.676 28.1265)
(25.414 -43.0782 24.6036)
(28.3151 -41.2155 27.898)
(21.9305 -44.9523 23.5944)
(20.9298 -45.4308 19.7707)
(17.4553 -46.8697 18.9505)
(16.831 -47.1044 15.5419)
(13.9538 -48.0089 15.4149)
(11.5175 -48.6748 10.2578)
(10.3483 -48.9281 11.874)
(6.81985 -49.5528 5.68791)
(5.45068 -49.7145 7.14129)
(5.06317 -49.7821 4.00199)
(0.539402 -50.0142 2.43705)
(-0.622015 -50.0151 -1.43082)
(-4.37832 -49.8273 -2.26266)
(-5.51433 -49.7151 -6.11289)
(-9.25252 -49.1528 -6.96695)
(-10.5529 -48.893 -10.9846)
(-14.0756 -47.9913 -11.7008)
(-15.0792 -47.6927 -15.4643)
(-18.7636 -46.36 -16.4372)
(-18.6574 -46.3925 -19.0848)
(-21.9183 -44.9619 -22.5001)
(-23.24 -44.2903 -21.1519)
(-26.2351 -42.5878 -27.2048)
(-27.5008 -41.7834 -25.873)
(-27.7711 -41.6276 -28.9291)
(-31.4652 -38.8835 -30.5687)
(-32.2826 -38.2056 -34.3357)
(-35.1564 -35.5743 -35.2984)
(-35.8222 -34.9101 -38.9592)
(-37.681 -32.8618 -38.8378)
(-39.0957 -31.1807 -43.7039)
(-44.9539 -21.9034 -54.1957)
(-43.0734 -25.4237 -50.3755)
(-46.4173 -18.6419 -57.608)
(-40.0493 -29.9691 -42.4028)
(-41.0464 -28.549 -46.8228)
(-42.5695 -26.2639 -46.6823)
(-44.5175 -22.7698 -50.5056)
(-46.019 -19.608 -53.8511)
(-47.9735 -14.1553 -62.136)
(-47.5413 -15.5489 -57.9762)
(-48.3593 -12.7902 -60.7256)
(-49.1539 -9.16853 -64.2861)
(-49.7028 -5.62768 -67.6927)
(-49.8349 -4.32071 -71.7136)
(-49.1768 -9.13792 -67.0711)
(-49.9735 -1.68228 -71.4648)
(7.24433 7.78429 -75.4087)
(1.079 9.95937 -68.8253)
(8.66295 5.05825 -78.8918)
(0.0689472 -10.0344 -78.8988)
(-8.7244 4.95549 -78.904)
(-7.24426 7.78432 76.4886)
(-1.07899 9.95938 69.9053)
(-8.66296 5.05825 79.9718)
(8.72441 4.95547 79.984)
(-0.0689765 -10.0344 79.9788)
(-5.88726 -1.23798 65.5399)
(-5.96859 0.886375 65.5398)
(-4.98193 -0.441387 64.5212)
(-4.84676 -1.23422 64.523)
(-5.26461 -2.91287 65.5399)
(-4.57224 -2.03107 64.5294)
(-4.20688 -2.7049 64.5266)
(-4.17443 -4.33333 65.5399)
(-3.71857 -3.34464 64.5284)
(-3.08545 -3.93984 64.5368)
(-2.71445 -5.36953 65.5399)
(-2.4677 -4.35027 64.532)
(-1.73744 -4.68995 64.5339)
(-1.01817 -5.92911 65.5399)
(-0.961931 -4.90806 64.5357)
(-0.157389 -4.99898 64.5293)
(1.10513 -5.93233 65.5398)
(0.641458 -4.96013 64.5217)
(1.45068 -4.78743 64.5263)
(3.10729 -5.15232 65.5399)
(2.17827 -4.50217 64.5252)
(2.87207 -4.09458 64.527)
(4.48617 -4.0097 65.5399)
(3.51996 -3.55534 64.533)
(4.4055 -2.36827 64.5269)
(5.46696 -2.51232 65.5399)
(4.73185 -1.61943 64.5237)
(5.96272 -0.797068 65.5399)
(4.93026 -0.839953 64.5219)
(5.00233 0.000496412 64.5232)
(5.94757 0.869437 65.54)
(5.46697 2.51232 65.5399)
(4.73181 1.61999 64.5239)
(4.41084 2.35772 64.5257)
(4.48617 4.0097 65.5399)
(3.97252 3.03902 64.5281)
(3.43736 3.63303 64.5293)
(3.10729 5.15232 65.5399)
(2.80989 4.13749 64.5311)
(2.10944 4.53482 64.533)
(1.10513 5.93233 65.5398)
(1.35411 4.81464 64.5348)
(0.559129 4.97011 64.5279)
(-1.01817 5.92911 65.5399)
(-0.264243 4.99542 64.5239)
(-1.0382 4.8925 64.5226)
(-2.71445 5.36953 65.5399)
(-1.8091 4.66278 64.5243)
(-2.53336 4.31236 64.5261)
(-4.17443 4.33333 65.5399)
(-3.1922 3.85022 64.5279)
(-3.76852 3.28826 64.5298)
(-5.26461 2.91287 65.5399)
(-4.24732 2.64095 64.5316)
(-4.61613 1.92501 64.5334)
(-4.8653 1.15897 64.5353)
(-4.98859 0.358557 64.5286)
(4.87806 -1.16449 -63.4591)
(4.99543 0.44315 -63.4552)
(4.32954 -2.5167 -63.448)
(3.46362 -3.60601 -63.46)
(2.55648 -4.31421 -63.4597)
(1.22433 -4.85395 -63.4497)
(-0.554741 -4.98409 -63.455)
(-2.1119 -4.54867 -63.4592)
(-3.16223 -3.87303 -63.46)
(-3.97634 -3.05567 -63.4595)
(-4.5999 -1.95983 -63.46)
(-4.95799 0.752915 -63.4549)
(-4.939 -0.867856 -63.4603)
(-4.4604 2.2924 -63.4592)
(-3.51065 3.5811 -63.4594)
(-2.20263 4.50512 -63.4598)
(-1.00013 4.89895 -63.46)
(-0.00944163 5.00636 -63.443)
(1.74101 4.70317 -63.4591)
(3.1342 3.91487 -63.4593)
(3.99721 3.00371 -63.46)
(4.5898 2.02023 -63.4598)
(-5.96859 0.886375 85.5402)
(-5.88726 -1.23798 85.5401)
(-4.98128 0.454434 86.5571)
(-4.84191 1.25692 86.5541)
(-5.26461 2.91287 85.5401)
(-4.58158 2.00717 86.5537)
(-4.1953 2.72458 86.5508)
(-4.17443 4.33333 85.5401)
(-3.70401 3.36217 86.5491)
(-2.54366 4.30661 86.5527)
(-2.71445 5.36953 85.5401)
(-1.82029 4.65872 86.5544)
(-1.01817 5.92911 85.5401)
(-1.05005 4.89025 86.5561)
(-0.200275 4.99832 86.557)
(1.10513 5.93233 85.5402)
(0.641454 4.96013 86.5583)
(1.42825 4.79317 86.5566)
(3.10729 5.15232 85.5401)
(2.18993 4.49709 86.5533)
(2.87206 4.09458 86.553)
(4.48617 4.0097 85.5401)
(3.49166 3.58087 86.5512)
(4.03526 2.95643 86.547)
(5.46696 2.51232 85.5401)
(4.72521 1.64092 86.5537)
(5.96272 0.797068 85.5401)
(4.92853 0.852478 86.5566)
(5.00144 0.0517722 86.5583)
(5.94757 -0.869437 85.54)
(5.46697 -2.51232 85.5401)
(4.72814 -1.63226 86.5545)
(4.41084 -2.35771 86.5543)
(4.48617 -4.0097 85.5401)
(3.97563 -3.03458 86.5525)
(3.43736 -3.63303 86.5507)
(3.10729 -5.15232 85.5401)
(2.18904 -4.49724 86.5536)
(1.10513 -5.93233 85.5402)
(1.4495 -4.7874 86.5542)
(0.600509 -4.96616 86.5574)
(-1.01817 -5.92911 85.5401)
(-0.253721 -4.99553 86.5575)
(-1.0382 -4.8925 86.5575)
(-2.71445 -5.36953 85.5401)
(-1.8091 -4.66278 86.5557)
(-2.53335 -4.31236 86.5539)
(-4.17443 -4.33333 85.5401)
(-3.20224 -3.84255 86.5507)
(-4.20073 -2.71495 86.5523)
(-5.26461 -2.91287 85.5401)
(-4.58629 -1.99474 86.5554)
(-4.84404 -1.24593 86.5557)
(-4.98709 -0.400105 86.5564)
(5.03325 0 -84.4602)
(4.63629 -1.91513 -84.4601)
(3.77404 -3.30522 -84.4601)
(2.50847 -4.34479 -84.4601)
(0.975383 -4.92103 -84.4601)
(-0.659591 -4.9727 -84.4601)
(-2.51663 -4.35892 -84.4602)
(-3.9767 -3.05758 -84.4601)
(-4.74943 -1.61581 -84.4601)
(-5.01692 -1.1406e-06 -84.4601)
(-4.74943 1.61581 -84.4601)
(-3.9767 3.05758 -84.4601)
(-2.51663 4.35892 -84.4602)
(-0.659592 4.9727 -84.4601)
(0.975382 4.92103 -84.4601)
(2.50847 4.34479 -84.4601)
(3.77404 3.30522 -84.4601)
(4.63629 1.91513 -84.4601)
(5.96859 -0.886377 -64.4598)
(5.88726 1.23797 -64.4599)
(5.26461 -2.91287 -64.4599)
(4.17443 -4.33333 -64.4599)
(2.71445 -5.36954 -64.4599)
(1.01816 -5.92912 -64.46)
(-1.10513 -5.93234 -64.4598)
(-3.10729 -5.15233 -64.4599)
(-4.48617 -4.0097 -64.4599)
(-5.46697 -2.51231 -64.46)
(-5.96273 -0.797057 -64.4599)
(-5.94757 0.869439 -64.46)
(-5.46697 2.51231 -64.46)
(-4.48617 4.0097 -64.4599)
(-3.10729 5.15232 -64.4599)
(-1.10513 5.93234 -64.4598)
(1.01816 5.92911 -64.46)
(2.71445 5.36954 -64.4599)
(4.17443 4.33333 -64.4599)
(5.26461 2.91287 -64.4599)
)


// edges:

777
(
(10 0)
(11 0)
(12 11)
(13 14)
(14 15)
(16 13)
(17 18)
(18 1)
(19 20)
(2 19)
(17 21)
(21 22)
(22 23)
(23 24)
(24 25)
(25 26)
(26 27)
(16 28)
(28 29)
(30 29)
(31 30)
(32 31)
(33 32)
(34 33)
(35 36)
(37 38)
(38 3)
(39 40)
(40 41)
(42 43)
(43 44)
(44 45)
(46 47)
(46 48)
(48 49)
(49 50)
(50 51)
(51 52)
(52 53)
(42 54)
(54 55)
(56 55)
(57 56)
(58 57)
(59 58)
(60 59)
(61 62)
(62 4)
(63 64)
(65 63)
(66 67)
(67 68)
(68 69)
(70 71)
(71 72)
(70 73)
(73 74)
(74 75)
(75 76)
(76 77)
(77 78)
(78 79)
(66 80)
(80 81)
(82 81)
(83 82)
(84 83)
(85 84)
(86 85)
(87 5)
(88 5)
(89 88)
(90 91)
(92 93)
(91 92)
(94 95)
(95 6)
(96 97)
(97 7)
(98 96)
(99 98)
(100 99)
(101 100)
(102 101)
(94 103)
(103 104)
(104 105)
(105 106)
(106 107)
(107 108)
(108 109)
(90 110)
(110 111)
(112 113)
(114 115)
(115 8)
(116 117)
(118 116)
(119 120)
(121 122)
(120 121)
(123 124)
(124 125)
(126 114)
(127 126)
(128 127)
(129 128)
(130 129)
(123 131)
(131 132)
(132 133)
(133 134)
(134 135)
(135 136)
(136 137)
(119 138)
(138 139)
(140 141)
(141 142)
(143 144)
(145 146)
(146 143)
(147 148)
(149 150)
(150 9)
(151 144)
(152 153)
(154 152)
(155 154)
(156 155)
(157 156)
(153 151)
(158 159)
(160 158)
(161 160)
(142 161)
(159 162)
(149 163)
(164 165)
(166 167)
(168 166)
(169 168)
(170 169)
(171 170)
(172 173)
(174 172)
(175 174)
(176 175)
(177 176)
(178 177)
(179 180)
(181 179)
(165 181)
(182 183)
(167 164)
(184 171)
(183 184)
(185 186)
(187 185)
(188 187)
(189 188)
(173 189)
(180 178)
(186 182)
(190 191)
(192 190)
(193 192)
(0 193)
(191 194)
(195 196)
(197 195)
(198 197)
(199 198)
(199 20)
(200 201)
(202 200)
(203 202)
(41 203)
(201 204)
(205 206)
(207 205)
(208 207)
(209 208)
(209 37)
(86 210)
(211 79)
(212 211)
(210 213)
(214 212)
(215 214)
(213 216)
(217 218)
(219 220)
(218 221)
(222 223)
(224 225)
(223 226)
(227 224)
(226 228)
(229 230)
(231 232)
(230 233)
(234 235)
(236 237)
(235 238)
(239 240)
(240 241)
(242 243)
(241 244)
(245 246)
(247 248)
(249 250)
(251 252)
(253 254)
(255 256)
(254 137)
(256 257)
(252 253)
(257 249)
(248 251)
(250 258)
(258 259)
(246 247)
(259 260)
(260 261)
(244 245)
(261 242)
(243 262)
(262 263)
(238 239)
(263 236)
(264 234)
(237 265)
(233 264)
(265 231)
(232 266)
(266 227)
(228 229)
(225 267)
(221 222)
(267 219)
(220 268)
(269 217)
(268 215)
(216 269)
(270 271)
(272 273)
(271 274)
(275 272)
(276 275)
(274 277)
(277 278)
(279 276)
(278 280)
(281 279)
(281 61)
(280 64)
(282 147)
(283 284)
(285 283)
(286 285)
(163 286)
(287 288)
(288 289)
(289 290)
(290 291)
(291 282)
(292 27)
(34 293)
(294 295)
(295 296)
(297 298)
(299 297)
(300 301)
(302 299)
(303 304)
(305 306)
(307 303)
(306 308)
(309 307)
(310 311)
(312 313)
(314 310)
(315 316)
(317 318)
(319 315)
(318 320)
(321 319)
(322 323)
(324 325)
(326 322)
(325 327)
(328 326)
(329 328)
(330 329)
(331 330)
(332 331)
(333 332)
(334 335)
(336 333)
(337 338)
(339 340)
(341 337)
(342 287)
(157 341)
(296 300)
(301 343)
(304 302)
(343 305)
(308 344)
(311 309)
(344 312)
(313 345)
(316 314)
(345 317)
(320 346)
(323 321)
(346 324)
(327 347)
(347 348)
(348 349)
(349 350)
(350 351)
(351 334)
(338 336)
(335 339)
(340 342)
(298 292)
(293 294)
(352 162)
(284 353)
(354 352)
(355 356)
(357 354)
(358 357)
(356 359)
(360 358)
(361 362)
(363 360)
(362 364)
(365 363)
(364 366)
(367 365)
(366 368)
(368 369)
(370 371)
(372 370)
(369 373)
(373 374)
(375 376)
(374 377)
(378 375)
(377 379)
(380 378)
(379 381)
(381 382)
(383 380)
(382 384)
(385 383)
(384 386)
(387 385)
(386 388)
(389 387)
(388 390)
(391 389)
(390 392)
(393 391)
(392 394)
(395 393)
(394 396)
(397 395)
(396 398)
(399 397)
(398 400)
(401 399)
(400 402)
(403 401)
(402 404)
(405 403)
(406 407)
(408 406)
(404 409)
(409 410)
(407 405)
(410 411)
(411 412)
(413 408)
(414 413)
(415 416)
(416 417)
(418 414)
(417 419)
(420 418)
(419 421)
(196 420)
(421 194)
(412 415)
(376 372)
(371 367)
(359 361)
(353 355)
(422 111)
(423 422)
(424 423)
(425 424)
(426 425)
(427 428)
(429 427)
(430 429)
(5 430)
(428 431)
(432 53)
(60 433)
(434 435)
(435 436)
(437 438)
(439 437)
(440 441)
(442 439)
(443 444)
(445 446)
(447 443)
(446 448)
(449 447)
(450 451)
(452 453)
(454 450)
(455 456)
(457 458)
(459 455)
(458 460)
(461 459)
(462 463)
(464 465)
(466 462)
(465 467)
(468 466)
(469 468)
(470 469)
(471 470)
(472 471)
(473 472)
(474 475)
(476 473)
(477 478)
(479 480)
(481 477)
(482 109)
(426 481)
(436 440)
(441 483)
(444 442)
(483 445)
(448 484)
(451 449)
(484 452)
(453 485)
(456 454)
(485 457)
(460 486)
(463 461)
(486 464)
(467 487)
(487 488)
(488 489)
(489 490)
(490 491)
(491 474)
(478 476)
(475 479)
(480 482)
(438 432)
(433 434)
(492 431)
(102 493)
(494 492)
(495 496)
(497 494)
(498 497)
(496 499)
(500 498)
(501 502)
(503 500)
(502 504)
(505 503)
(504 506)
(507 505)
(506 508)
(508 509)
(510 511)
(512 510)
(509 513)
(513 514)
(515 516)
(514 517)
(518 515)
(517 519)
(520 518)
(519 521)
(521 522)
(523 520)
(522 524)
(525 523)
(524 526)
(527 525)
(526 528)
(529 527)
(528 530)
(531 529)
(530 532)
(533 531)
(532 534)
(535 533)
(534 536)
(537 535)
(536 538)
(539 537)
(538 540)
(541 539)
(540 542)
(543 541)
(542 544)
(545 543)
(546 547)
(548 546)
(544 549)
(549 550)
(547 545)
(550 551)
(551 552)
(553 548)
(554 553)
(555 556)
(556 557)
(558 554)
(557 559)
(560 558)
(559 561)
(206 560)
(561 204)
(552 555)
(516 512)
(511 507)
(499 501)
(493 495)
(562 563)
(563 564)
(564 565)
(565 566)
(566 567)
(117 567)
(568 255)
(569 568)
(139 570)
(571 569)
(570 571)
(572 562)
(130 573)
(574 572)
(575 576)
(577 574)
(578 577)
(576 579)
(580 578)
(581 582)
(583 580)
(582 584)
(585 583)
(584 586)
(587 585)
(586 588)
(588 589)
(590 591)
(592 590)
(589 593)
(593 594)
(595 596)
(594 597)
(598 595)
(597 599)
(600 598)
(599 601)
(602 600)
(601 603)
(604 602)
(603 605)
(606 604)
(605 607)
(608 606)
(607 609)
(610 608)
(609 611)
(612 610)
(611 613)
(614 612)
(613 615)
(616 614)
(617 616)
(615 618)
(619 617)
(618 620)
(621 619)
(620 622)
(623 621)
(622 624)
(625 623)
(624 626)
(627 625)
(628 629)
(630 628)
(626 631)
(632 627)
(631 633)
(629 632)
(633 634)
(634 635)
(636 630)
(637 638)
(638 639)
(639 640)
(641 642)
(640 643)
(273 641)
(643 270)
(642 636)
(635 637)
(596 592)
(591 587)
(579 581)
(573 575)
(0 644)
(645 1)
(646 2)
(647 3)
(648 4)
(5 649)
(650 6)
(651 7)
(652 8)
(653 9)
(654 655)
(656 657)
(658 654)
(659 660)
(661 658)
(662 663)
(664 661)
(665 666)
(667 664)
(668 669)
(670 667)
(671 672)
(673 670)
(674 675)
(676 673)
(677 678)
(679 676)
(678 680)
(681 679)
(682 683)
(684 681)
(685 684)
(686 687)
(688 685)
(689 690)
(691 688)
(692 693)
(694 691)
(695 696)
(697 694)
(698 699)
(700 697)
(701 702)
(703 700)
(704 705)
(706 703)
(707 708)
(655 706)
(709 710)
(711 712)
(713 711)
(714 713)
(715 714)
(716 715)
(717 716)
(718 717)
(719 718)