/*--------------------------------*- C++ -*----------------------------------*\
| =========                 |                                                 |
| \\      /  F ield         | OpenFOAM: The Open Source CFD Toolbox           |
|  \\    /   O peration     | Version:  2206                                  |
|   \\  /    A nd           | Website:  www.openfoam.com                      |
|    \\/     M anipulation  |                                                 |
\*---------------------------------------------------------------------------*/
FoamFile
{
    version     2.0;
    format      ascii;
    arch        "LSB;label=64;scalar=64";
    class       featureEdgeMesh;
    location    "constant/triSurface";
    object      GeoShaft.eMesh;
}
// * * * * * * * * * * * * * * * * * * * * * * * * * * * * * * * * * * * * * //


// points:

2387
(
(17.804 33.5729 -74.3367)
(15.8784 34.5253 -71.6372)
(20.173 -32.2051 -74.3367)
(21.9606 -31.0137 -71.6372)
(-37.977 -1.36776 -74.3367)
(-37.839 -3.51159 -71.6372)
(-20.173 -32.2051 75.4167)
(-20.8683 -31.759 74.3787)
(-21.9606 -31.0137 72.7172)
(-22.6302 -30.5286 71.6783)
(-17.804 33.5729 75.4167)
(-17.07 33.952 74.3787)
(-15.8784 34.5253 72.7172)
(-15.1234 34.8626 71.6783)
(37.977 -1.36776 75.4167)
(37.9382 -2.19296 74.3787)
(37.839 -3.51159 72.7172)
(37.7536 -4.33405 71.6783)
(-18.3876 33.2625 76.2471)
(38 -0.707107 76.2471)
(18.3876 33.2625 -75.1671)
(16.4783 34.2486 -72.4671)
(17.07 33.952 -73.2987)
(19.6124 -32.5554 -75.1671)
(21.421 -31.3949 -72.4671)
(-38 -0.707107 -75.1671)
(-37.8993 -2.85368 -72.4671)
(-37.9382 -2.19296 -73.2987)
(-19.6124 -32.5554 76.2471)
(-21.421 -31.3949 73.5471)
(-23.1612 -30.134 70.8471)
(-16.4783 34.2486 73.5471)
(-14.5163 35.1252 70.8471)
(37.8993 -2.85368 73.5471)
(37.6774 -4.99113 70.8471)
(9.06213 5.43404 -78.1723)
(9.10255 5.51303 -78.1723)
(9.02932 5.35145 -78.1723)
(8.98447 5.17918 -78.1723)
(9.03044 4.39341 -78.1723)
(8.98748 4.59869 -78.1723)
(8.96462 4.80245 -78.1723)
(8.96352 4.99685 -78.1723)
(1.94185 10.5828 -69.0974)
(1.92522 10.4894 -69.0604)
(2.11161 11.0384 -69.1657)
(2.05384 10.9288 -69.1642)
(2.00592 10.8154 -69.1521)
(1.9684 10.6995 -69.1298)
(1.90979 10.4016 -69.0117)
(1.89558 10.3196 -68.9525)
(1.88268 10.2441 -68.8845)
(1.87111 10.1756 -68.8091)
(1.86083 10.1139 -68.7275)
(1.84396 10.0105 -68.5505)
(1.83157 9.93212 -68.3597)
(1.82328 9.8774 -68.1608)
(0.253711 10.6561 -70.617)
(0.227908 10.6132 -70.6177)
(0.178733 10.542 -70.6178)
(0.123288 10.4753 -70.6178)
(-0.00267049 10.3556 -70.618)
(-0.146649 10.2516 -70.6182)
(-0.310604 10.1598 -70.6185)
(-0.492958 10.0812 -70.619)
(-0.688288 10.0178 -70.6196)
(8.12848 6.87876 -79.7055)
(8.19918 6.93813 -79.6672)
(8.06198 6.82307 -79.7546)
(7.9999 6.77123 -79.8137)
(7.94266 6.72355 -79.8811)
(7.89056 6.68027 -79.9555)
(7.84359 6.64132 -80.0357)
(7.7647 6.57611 -80.2095)
(7.7048 6.52674 -80.3966)
(7.66291 6.4923 -80.5916)
(4.79766 9.71839 -75.1762)
(4.84198 9.80078 -75.1671)
(8.50572 7.30772 -79.5865)
(8.43994 7.20405 -79.5917)
(8.36635 7.10716 -79.6069)
(8.28575 7.0181 -79.6322)
(6.25582 20.9524 -70.2592)
(12.2579 31.2488 -69.9015)
(12.454 31.6112 -69.8729)
(12.625 31.9821 -69.8121)
(12.7696 32.3581 -69.7198)
(12.8863 32.7347 -69.597)
(12.9743 33.1085 -69.4447)
(13.0329 33.4756 -69.2646)
(13.0615 33.8315 -69.0589)
(13.0601 34.1735 -68.8292)
(13.0288 34.4989 -68.5772)
(12.9677 34.8039 -68.3056)
(12.8776 35.0846 -68.0178)
(12.7591 35.339 -67.7162)
(12.6131 35.5647 -67.4029)
(12.441 35.7587 -67.082)
(12.2448 35.9187 -66.7574)
(12.0258 36.0433 -66.4317)
(7.86099 20.9079 -68.8245)
(13.6104 30.7774 -68.4834)
(13.8033 31.1339 -68.4556)
(13.9717 31.4981 -68.3968)
(14.1144 31.867 -68.3077)
(14.2307 32.2379 -68.1888)
(14.319 32.6062 -68.0415)
(14.3787 32.9676 -67.8674)
(14.4095 33.3195 -67.6679)
(14.4112 33.6592 -67.4445)
(14.3836 33.9823 -67.1997)
(14.3271 34.2854 -66.9363)
(14.2423 34.5663 -66.6563)
(14.1294 34.8226 -66.3616)
(13.9896 35.0511 -66.0557)
(13.8241 35.2493 -65.7418)
(13.6342 35.4153 -65.4227)
(13.4219 35.547 -65.1023)
(-0.285561 -9.99592 -65.46)
(-1.42315 -9.89821 -65.46)
(-2.54218 -9.67147 -83.46)
(-1.42315 -9.89821 -83.46)
(-2.54218 -9.67147 -65.46)
(-3.62808 -9.31864 -83.46)
(-3.62808 -9.31864 -65.46)
(-4.66667 -8.84433 -83.46)
(-4.66667 -8.84433 -65.46)
(-5.64443 -8.25472 -83.46)
(-5.64443 -8.25472 -65.46)
(-6.54861 -7.5575 -83.46)
(-6.54861 -7.5575 -65.46)
(-7.36741 -6.76175 -83.46)
(-7.36741 -6.76175 -65.46)
(-8.09017 -5.87785 -65.46)
(-8.70746 -4.91733 -65.46)
(-9.21124 -3.8927 -65.46)
(-9.59493 -2.81733 -65.46)
(-9.85354 -1.70522 -65.46)
(-9.98369 -0.570888 -65.46)
(-9.98369 0.570888 -65.46)
(-9.85354 1.70522 -65.46)
(-9.59493 2.81733 -65.46)
(-9.21124 3.8927 -65.46)
(-8.70746 4.91733 -65.46)
(-8.09017 5.87785 -65.46)
(-7.36741 6.76175 -65.46)
(-6.54861 7.5575 -83.46)
(-7.36741 6.76175 -83.46)
(-6.54861 7.5575 -65.46)
(-5.64443 8.25472 -83.46)
(-5.64443 8.25472 -65.46)
(-4.66667 8.84433 -83.46)
(-4.66667 8.84433 -65.46)
(-3.62808 9.31864 -83.46)
(-3.62808 9.31864 -65.46)
(-2.54218 9.67147 -83.46)
(-2.54218 9.67147 -65.46)
(-1.42315 9.89821 -83.46)
(-1.42315 9.89821 -65.46)
(-0.285561 9.99592 -65.46)
(0.85575 9.96332 -65.46)
(1.9859 9.80083 -65.46)
(3.09017 9.51056 -65.46)
(4.15415 9.09632 -65.46)
(5.16397 8.56349 -65.46)
(6.10648 7.91902 -65.46)
(6.96938 7.17132 -65.46)
(7.74142 6.33012 -65.46)
(8.41254 5.40641 -65.46)
(8.97398 4.41221 -65.46)
(9.41844 3.36049 -65.46)
(9.74012 2.26497 -83.46)
(9.41844 3.36049 -83.46)
(9.74012 2.26497 -65.46)
(9.93482 1.13991 -83.46)
(9.93482 1.13991 -65.46)
(10 6.49446e-14 -83.46)
(10 5.94003e-14 -65.46)
(9.93482 -1.13991 -83.46)
(9.93482 -1.13991 -65.46)
(9.74012 -2.26497 -83.46)
(9.74012 -2.26497 -65.46)
(9.41844 -3.36049 -83.46)
(9.41844 -3.36049 -65.46)
(8.97398 -4.41221 -65.46)
(8.41254 -5.40641 -65.46)
(7.74142 -6.33012 -65.46)
(6.96938 -7.17132 -65.46)
(6.10648 -7.91902 -65.46)
(5.16397 -8.56349 -65.46)
(4.15415 -9.09632 -65.46)
(3.09017 -9.51056 -65.46)
(1.9859 -9.80083 -65.46)
(0.85575 -9.96332 -65.46)
(8.97398 -4.41221 -83.46)
(8.41254 -5.40641 -83.46)
(7.74142 -6.33012 -83.46)
(6.96938 -7.17132 -83.46)
(6.10648 -7.91902 -83.46)
(5.16397 -8.56349 -83.46)
(4.15415 -9.09632 -83.46)
(3.09017 -9.51056 -83.46)
(1.9859 -9.80083 -83.46)
(0.85575 -9.96332 -83.46)
(-0.285561 -9.99592 -83.46)
(8.97398 4.41221 -83.46)
(8.41254 5.40641 -83.46)
(7.74142 6.33012 -83.46)
(6.96938 7.17132 -83.46)
(6.10648 7.91902 -83.46)
(5.16397 8.56349 -83.46)
(4.15415 9.09632 -83.46)
(3.09017 9.51056 -83.46)
(1.9859 9.80083 -83.46)
(0.85575 9.96332 -83.46)
(-0.285561 9.99592 -83.46)
(-8.09017 5.87785 -83.46)
(-8.70746 4.91733 -83.46)
(-9.21124 3.8927 -83.46)
(-9.59493 2.81733 -83.46)
(-9.85354 1.70522 -83.46)
(-9.98369 0.570888 -83.46)
(-9.98369 -0.570888 -83.46)
(-9.85354 -1.70522 -83.46)
(-9.59493 -2.81733 -83.46)
(-9.21124 -3.8927 -83.46)
(-8.70746 -4.91733 -83.46)
(-8.09017 -5.87785 -83.46)
(6.01754 -9.01408 -75.1762)
(6.06673 -9.09367 -75.1671)
(2.07581 -11.02 -79.5865)
(2.01892 -10.9112 -79.5917)
(1.9718 -10.7991 -79.6069)
(1.93497 -10.6847 -79.6322)
(1.909 -10.5698 -79.6672)
(1.89294 -10.4789 -79.7055)
(1.87796 -10.3934 -79.7546)
(1.86411 -10.3137 -79.8137)
(1.85144 -10.2403 -79.8811)
(1.84 -10.1736 -79.9555)
(1.82976 -10.1134 -80.0357)
(1.81273 -10.0125 -80.2095)
(1.79993 -9.93592 -80.3966)
(1.79105 -9.88243 -80.5916)
(-0.154358 -10.2611 -78.1723)
(-0.00693516 -10.3704 -78.1723)
(-0.323264 -10.1648 -78.1723)
(-0.511162 -10.0827 -78.1723)
(-0.710419 -10.0173 -78.1723)
(0.119828 -10.4953 -78.1723)
(0.174949 -10.5651 -78.1723)
(0.223152 -10.6396 -78.1723)
(8.19406 -6.97309 -69.0974)
(8.12149 -6.91199 -69.0604)
(8.50374 -7.34791 -69.1657)
(8.43768 -7.24306 -69.1642)
(8.36344 -7.14488 -69.1521)
(8.28186 -7.05444 -69.1298)
(8.05312 -6.8547 -69.0117)
(7.98923 -6.80141 -68.9525)
(7.93035 -6.75252 -68.8845)
(7.87678 -6.70823 -68.8091)
(7.82847 -6.66848 -68.7275)
(7.74736 -6.60217 -68.5505)
(7.68568 -6.55224 -68.3597)
(7.64244 -6.51771 -68.1608)
(8.96959 -5.17551 -70.618)
(8.95146 -4.99879 -70.6182)
(9.01023 -5.34442 -70.6178)
(9.04026 -5.42578 -70.6178)
(9.07738 -5.50399 -70.6177)
(9.10159 -5.54776 -70.617)
(8.95397 -4.81092 -70.6185)
(8.97708 -4.6137 -70.619)
(9.01983 -4.41284 -70.6196)
(15.0174 -15.8939 -70.2592)
(20.9333 -26.2401 -69.9015)
(21.1491 -26.5911 -69.8729)
(21.3848 -26.9246 -69.8121)
(21.6382 -27.2379 -69.7198)
(21.9059 -27.5272 -69.597)
(22.1856 -27.7903 -69.4447)
(22.4743 -28.0246 -69.2646)
(22.7682 -28.2273 -69.0589)
(23.065 -28.3972 -68.8292)
(23.3626 -28.5327 -68.5772)
(23.6572 -28.6323 -68.3056)
(23.9454 -28.6946 -68.0178)
(24.2249 -28.7192 -67.7162)
(24.4934 -28.7056 -67.4029)
(24.7474 -28.6536 -67.082)
(24.9841 -28.5636 -66.7574)
(25.2015 -28.4363 -66.4317)
(14.1763 -17.2618 -68.8245)
(19.8489 -27.1757 -68.4834)
(20.0611 -27.521 -68.4556)
(20.2923 -27.8488 -68.3968)
(20.5404 -28.157 -68.3077)
(20.8035 -28.4431 -68.1888)
(21.0782 -28.7037 -68.0415)
(21.3614 -28.9361 -67.8674)
(21.6507 -29.1388 -67.6679)
(21.9441 -29.31 -67.4445)
(22.2377 -29.4477 -67.1997)
(22.5285 -29.5504 -66.9363)
(22.8141 -29.6173 -66.6563)
(23.0925 -29.6477 -66.3616)
(23.3603 -29.6409 -66.0557)
(23.6147 -29.5967 -65.7418)
(23.8535 -29.5152 -65.4227)
(24.0737 -29.3972 -65.1023)
(-10.8151 -0.704301 -75.1762)
(-10.9087 -0.707107 -75.1671)
(-10.5815 3.71231 -79.5865)
(-10.4589 3.70718 -79.5917)
(-10.3382 3.6919 -79.6069)
(-10.2207 3.66662 -79.6322)
(-10.1082 3.63163 -79.6672)
(-10.0214 3.6001 -79.7055)
(-9.93994 3.57035 -79.7546)
(-9.86401 3.5425 -79.8137)
(-9.79409 3.51677 -79.8811)
(-9.73057 3.49329 -79.9555)
(-9.67335 3.47208 -80.0357)
(-9.57743 3.43637 -80.2095)
(-9.50472 3.40918 -80.3966)
(-9.45395 3.39012 -80.5916)
(-9.23708 5.13102 -78.1723)
(-9.3257 5.12652 -78.1723)
(-9.14915 5.1439 -78.1723)
(-8.97754 5.19119 -78.1723)
(-8.32002 5.62389 -78.1723)
(-8.47632 5.48405 -78.1723)
(-8.64135 5.36236 -78.1723)
(-8.80916 5.26421 -78.1723)
(-10.1359 -3.60972 -69.0974)
(-10.0467 -3.57742 -69.0604)
(-10.6153 -3.6905 -69.1657)
(-10.4915 -3.68572 -69.1642)
(-10.3694 -3.67052 -69.1521)
(-10.2503 -3.64508 -69.1298)
(-9.96291 -3.54686 -69.0117)
(-9.88481 -3.51817 -68.9525)
(-9.81303 -3.49163 -68.8845)
(-9.74789 -3.46737 -68.8091)
(-9.68931 -3.44542 -68.7275)
(-9.59132 -3.40833 -68.5505)
(-9.51725 -3.37988 -68.3597)
(-9.46572 -3.35969 -68.1608)
(-8.96692 -5.18014 -70.618)
(-8.80481 -5.25279 -70.6182)
(-9.13352 -5.13088 -70.6178)
(-9.219 -5.11621 -70.6178)
(-9.30529 -5.10925 -70.6177)
(-9.3553 -5.10832 -70.617)
(-8.64337 -5.3489 -70.6185)
(-8.48412 -5.46753 -70.619)
(-8.33155 -5.60499 -70.6196)
(-21.2732 -5.05852 -70.2592)
(-33.1912 -5.00871 -69.9015)
(-33.6031 -5.02012 -69.8729)
(-34.0098 -5.05748 -69.8121)
(-34.4078 -5.12026 -69.7198)
(-34.7922 -5.20747 -69.597)
(-35.16 -5.31815 -69.4447)
(-35.5071 -5.45098 -69.2646)
(-35.8297 -5.60415 -69.0589)
(-36.1252 -5.77634 -68.8292)
(-36.3913 -5.96622 -68.5772)
(-36.6249 -6.17163 -68.3056)
(-36.823 -6.39003 -68.0178)
(-36.984 -6.61974 -67.7162)
(-37.1065 -6.8591 -67.4029)
(-37.1884 -7.10514 -67.082)
(-37.2289 -7.35505 -66.7574)
(-37.2273 -7.607 -66.4317)
(-22.0373 -3.64615 -68.8245)
(-33.4592 -3.60179 -68.4834)
(-33.8644 -3.61295 -68.4556)
(-34.2639 -3.64922 -68.3968)
(-34.6548 -3.71004 -68.3077)
(-35.0342 -3.79484 -68.1888)
(-35.3973 -3.90243 -68.0415)
(-35.7401 -4.03143 -67.8674)
(-36.0603 -4.1807 -67.6679)
(-36.3553 -4.34914 -67.4445)
(-36.6213 -4.53459 -67.1997)
(-36.8556 -4.73503 -66.9363)
(-37.0564 -4.94897 -66.6563)
(-37.2219 -5.17489 -66.3616)
(-37.3499 -5.4102 -66.0557)
(-37.4388 -5.65264 -65.7418)
(-37.4877 -5.90011 -65.4227)
(-37.4956 -6.14981 -65.1023)
(-9.06213 5.43404 79.2523)
(-9.10255 5.51303 79.2523)
(-9.02932 5.35145 79.2523)
(-8.98447 5.17918 79.2523)
(-9.03044 4.39341 79.2523)
(-8.98748 4.59869 79.2523)
(-8.96462 4.80245 79.2523)
(-8.96352 4.99685 79.2523)
(-1.9684 10.6995 70.2098)
(-1.94185 10.5828 70.1774)
(-2.00592 10.8154 70.2321)
(-2.05384 10.9288 70.2442)
(-2.11161 11.0384 70.2457)
(-1.92522 10.4894 70.1404)
(-1.90979 10.4016 70.0917)
(-1.89558 10.3196 70.0325)
(-1.88268 10.2441 69.9645)
(-1.87111 10.1756 69.8891)
(-1.86083 10.1139 69.8075)
(-1.84396 10.0105 69.6305)
(-1.83157 9.93212 69.4397)
(-1.82328 9.8774 69.2408)
(-0.253711 10.6561 71.697)
(-0.227908 10.6132 71.6977)
(-0.178733 10.542 71.6978)
(-0.123288 10.4753 71.6978)
(0.00267049 10.3556 71.698)
(0.146649 10.2516 71.6982)
(0.310604 10.1598 71.6985)
(0.492958 10.0812 71.699)
(0.688288 10.0178 71.6996)
(-4.79766 9.71839 76.2562)
(-4.84198 9.80078 76.2471)
(-8.50572 7.30772 80.6665)
(-8.43994 7.20405 80.6717)
(-8.36635 7.10716 80.6869)
(-8.28575 7.0181 80.7122)
(-8.19918 6.93813 80.7472)
(-8.12848 6.87876 80.7855)
(-8.06198 6.82307 80.8346)
(-7.9999 6.77123 80.8937)
(-7.94266 6.72355 80.9611)
(-7.89056 6.68027 81.0355)
(-7.84359 6.64132 81.1157)
(-7.7647 6.57611 81.2895)
(-7.7048 6.52674 81.4766)
(-7.66291 6.4923 81.6716)
(-25.09 36.0325 80.6665)
(-26.1719 39.3095 79.965)
(-26.0423 38.4806 80.2672)
(-26.2016 40.1167 79.5871)
(-26.1307 40.8857 79.1412)
(-25.9608 41.6009 78.6364)
(-25.6952 42.2477 78.083)
(-25.3393 42.813 77.4922)
(-24.9005 43.2853 76.8761)
(-24.3876 43.6548 76.2471)
(-25.8153 37.6469 80.4875)
(-25.4957 36.8252 80.6215)
(-6.25582 20.9524 71.3392)
(-12.2579 31.2488 70.9815)
(-12.454 31.6112 70.9529)
(-12.625 31.9821 70.8921)
(-12.7696 32.3581 70.7998)
(-12.8863 32.7347 70.677)
(-12.9743 33.1085 70.5247)
(-13.0329 33.4756 70.3446)
(-13.0615 33.8315 70.1389)
(-13.0601 34.1735 69.9092)
(-13.0288 34.4989 69.6572)
(-12.9677 34.8039 69.3856)
(-12.8776 35.0846 69.0978)
(-12.7591 35.339 68.7962)
(-12.6131 35.5647 68.4829)
(-12.441 35.7587 68.162)
(-12.2448 35.9187 67.8374)
(-12.0258 36.0433 67.5117)
(-7.86099 20.9079 69.9046)
(-13.6104 30.7774 69.5634)
(8.09017 5.87785 66.54)
(7.36741 6.76175 66.54)
(6.54861 7.5575 84.54)
(7.36741 6.76175 84.54)
(6.54861 7.5575 66.54)
(5.64443 8.25472 84.54)
(5.64443 8.25472 66.54)
(4.66667 8.84433 84.54)
(4.66667 8.84433 66.54)
(3.62808 9.31864 84.54)
(3.62808 9.31864 66.54)
(2.54218 9.67147 84.54)
(2.54218 9.67147 66.54)
(1.42315 9.89821 84.54)
(1.42315 9.89821 66.54)
(0.285561 9.99592 66.54)
(-0.85575 9.96332 66.54)
(-1.9859 9.80083 66.54)
(-3.09017 9.51056 66.54)
(-4.15415 9.09632 66.54)
(-5.16397 8.56349 66.54)
(-6.10648 7.91902 66.54)
(-6.96938 7.17132 66.54)
(-7.74142 6.33012 66.54)
(-8.41254 5.40641 66.54)
(-8.97398 4.41221 66.54)
(-9.41844 3.36049 66.54)
(-9.74012 2.26497 84.54)
(-9.41844 3.36049 84.54)
(-9.74012 2.26497 66.54)
(-9.93482 1.13991 84.54)
(-9.93482 1.13991 66.54)
(-10 -9.66234e-15 84.54)
(-10 7.80558e-16 66.54)
(-9.93482 -1.13991 84.54)
(-9.93482 -1.13991 66.54)
(-9.74012 -2.26497 84.54)
(-9.74012 -2.26497 66.54)
(-9.41844 -3.36049 84.54)
(-9.41844 -3.36049 66.54)
(-8.97398 -4.41221 66.54)
(-8.41254 -5.40641 66.54)
(-7.74142 -6.33012 66.54)
(-6.96938 -7.17132 66.54)
(-6.10648 -7.91902 66.54)
(-5.16397 -8.56349 66.54)
(-4.15415 -9.09632 66.54)
(-3.09017 -9.51056 66.54)
(-1.9859 -9.80083 66.54)
(-0.85575 -9.96332 66.54)
(0.285561 -9.99592 66.54)
(1.42315 -9.89821 66.54)
(2.54218 -9.67147 84.54)
(1.42315 -9.89821 84.54)
(2.54218 -9.67147 66.54)
(3.62808 -9.31864 84.54)
(3.62808 -9.31864 66.54)
(4.66667 -8.84433 84.54)
(4.66667 -8.84433 66.54)
(5.64443 -8.25472 84.54)
(5.64443 -8.25472 66.54)
(6.54861 -7.5575 84.54)
(6.54861 -7.5575 66.54)
(7.36741 -6.76175 84.54)
(7.36741 -6.76175 66.54)
(8.09017 -5.87785 66.54)
(8.70746 -4.91733 66.54)
(9.21124 -3.8927 66.54)
(9.59493 -2.81733 66.54)
(9.85354 -1.70522 66.54)
(9.98369 -0.570888 66.54)
(9.98369 0.570888 66.54)
(9.85354 1.70522 66.54)
(9.59493 2.81733 66.54)
(9.21124 3.8927 66.54)
(8.70746 4.91733 66.54)
(8.09017 -5.87785 84.54)
(8.70746 -4.91733 84.54)
(9.21124 -3.8927 84.54)
(9.59493 -2.81733 84.54)
(9.85354 -1.70522 84.54)
(9.98369 -0.570888 84.54)
(9.98369 0.570888 84.54)
(9.85354 1.70522 84.54)
(9.59493 2.81733 84.54)
(9.21124 3.8927 84.54)
(8.70746 4.91733 84.54)
(8.09017 5.87785 84.54)
(-8.97398 4.41221 84.54)
(-8.41254 5.40641 84.54)
(-7.74142 6.33012 84.54)
(-6.96938 7.17132 84.54)
(-6.10648 7.91902 84.54)
(-5.16397 8.56349 84.54)
(-4.15415 9.09632 84.54)
(-3.09017 9.51056 84.54)
(-1.9859 9.80083 84.54)
(-0.85575 9.96332 84.54)
(0.285561 9.99592 84.54)
(0.285561 -9.99592 84.54)
(-0.85575 -9.96332 84.54)
(-1.9859 -9.80083 84.54)
(-3.09017 -9.51056 84.54)
(-4.15415 -9.09632 84.54)
(-5.16397 -8.56349 84.54)
(-6.10648 -7.91902 84.54)
(-6.96938 -7.17132 84.54)
(-7.74142 -6.33012 84.54)
(-8.41254 -5.40641 84.54)
(-8.97398 -4.41221 84.54)
(10.8151 -0.704301 76.2562)
(10.9087 -0.707107 76.2471)
(10.5815 3.71231 80.6665)
(10.4589 3.70718 80.6717)
(10.3382 3.6919 80.6869)
(10.2207 3.66662 80.7122)
(10.1082 3.63163 80.7472)
(10.0214 3.6001 80.7855)
(9.93994 3.57035 80.8346)
(9.86401 3.5425 80.8937)
(9.79409 3.51677 80.9611)
(9.73057 3.49329 81.0355)
(9.67335 3.47208 81.1157)
(9.57743 3.43637 81.2895)
(9.50472 3.40918 81.4766)
(9.45395 3.39012 81.6716)
(9.23708 5.13102 79.2523)
(9.3257 5.12652 79.2523)
(9.14915 5.1439 79.2523)
(8.97754 5.19119 79.2523)
(8.32002 5.62389 79.2523)
(8.47632 5.48405 79.2523)
(8.64135 5.36236 79.2523)
(8.80916 5.26421 79.2523)
(10.2503 -3.64508 70.2098)
(10.1359 -3.60972 70.1774)
(10.3694 -3.67052 70.2321)
(10.4915 -3.68572 70.2442)
(10.6153 -3.6905 70.2457)
(10.0467 -3.57742 70.1404)
(9.96291 -3.54686 70.0917)
(9.88481 -3.51817 70.0325)
(9.81303 -3.49163 69.9645)
(9.74789 -3.46737 69.8891)
(9.68931 -3.44542 69.8075)
(9.59132 -3.40833 69.6305)
(9.51725 -3.37988 69.4397)
(9.46572 -3.35969 69.2408)
(8.96692 -5.18014 71.698)
(8.80481 -5.25279 71.6982)
(9.13352 -5.13088 71.6978)
(9.219 -5.11621 71.6978)
(9.30529 -5.10925 71.6977)
(9.3553 -5.10832 71.697)
(8.64337 -5.3489 71.6985)
(8.48412 -5.46753 71.699)
(8.33155 -5.60499 71.6996)
(43.75 3.71231 80.6665)
(47.129 3.01074 79.965)
(46.3463 3.31294 80.2672)
(47.8429 2.63287 79.5871)
(48.4734 2.187 79.1412)
(49.0078 1.68221 78.6364)
(49.4352 1.12879 78.083)
(49.7468 0.537987 77.4922)
(49.9364 -0.0781581 76.8761)
(50 -0.707107 76.2471)
(45.5108 3.53329 80.4875)
(44.6395 3.66733 80.6215)
(21.2732 -5.05852 71.3392)
(33.1912 -5.00871 70.9815)
(33.6031 -5.02012 70.9529)
(34.0098 -5.05748 70.8921)
(34.4078 -5.12026 70.7998)
(34.7922 -5.20747 70.677)
(35.16 -5.31815 70.5247)
(35.5071 -5.45098 70.3446)
(35.8297 -5.60415 70.1389)
(36.1252 -5.77634 69.9092)
(36.3913 -5.96622 69.6572)
(36.6249 -6.17163 69.3856)
(36.823 -6.39003 69.0978)
(36.984 -6.61974 68.7962)
(37.1065 -6.8591 68.4829)
(37.1884 -7.10514 68.162)
(37.2289 -7.35505 67.8374)
(37.2273 -7.607 67.5117)
(22.0373 -3.64615 69.9046)
(33.4592 -3.60179 69.5634)
(0.154358 -10.2611 79.2523)
(0.00693516 -10.3704 79.2523)
(0.323264 -10.1648 79.2523)
(0.511162 -10.0827 79.2523)
(0.710419 -10.0173 79.2523)
(-0.119828 -10.4953 79.2523)
(-0.174949 -10.5651 79.2523)
(-0.223152 -10.6396 79.2523)
(-8.12149 -6.91199 70.1404)
(-8.19406 -6.97309 70.1774)
(-8.95146 -4.99879 71.6982)
(-8.95397 -4.81092 71.6985)
(-9.10159 -5.54776 71.697)
(-9.07738 -5.50399 71.6977)
(-9.04026 -5.42578 71.6978)
(-9.01023 -5.34442 71.6978)
(-8.96959 -5.17551 71.698)
(-8.97708 -4.6137 71.699)
(-9.01983 -4.41284 71.6996)
(-7.64244 -6.51771 69.2408)
(-7.68568 -6.55224 69.4397)
(-7.74736 -6.60217 69.6305)
(-7.82847 -6.66848 69.8075)
(-7.87678 -6.70823 69.8891)
(-7.93035 -6.75252 69.9645)
(-7.98923 -6.80141 70.0325)
(-8.05312 -6.8547 70.0917)
(-6.01754 -9.01408 76.2562)
(-6.06673 -9.09367 76.2471)
(-2.07581 -11.02 80.6665)
(-2.01892 -10.9112 80.6717)
(-1.9718 -10.7991 80.6869)
(-1.93497 -10.6847 80.7122)
(-1.909 -10.5698 80.7472)
(-1.89294 -10.4789 80.7855)
(-1.87796 -10.3934 80.8346)
(-1.86411 -10.3137 80.8937)
(-1.85144 -10.2403 80.9611)
(-1.84 -10.1736 81.0355)
(-1.82976 -10.1134 81.1157)
(-1.81273 -10.0125 81.2895)
(-1.79993 -9.93592 81.4766)
(-1.79105 -9.88243 81.6716)
(-8.50374 -7.34791 70.2457)
(-8.43768 -7.24306 70.2442)
(-8.36344 -7.14488 70.2321)
(-8.28186 -7.05444 70.2098)
(-14.1763 -17.2618 69.9046)
(-20.0611 -27.521 69.5356)
(-19.8489 -27.1757 69.5634)
(-20.2923 -27.8488 69.4768)
(-20.5404 -28.157 69.3877)
(-20.8035 -28.4431 69.2688)
(-21.0782 -28.7037 69.1215)
(-21.3614 -28.9361 68.9474)
(-21.6507 -29.1388 68.7479)
(-21.9441 -29.31 68.5245)
(-22.2377 -29.4477 68.2797)
(-22.5285 -29.5504 68.0163)
(-22.8141 -29.6173 67.7363)
(-23.0925 -29.6477 67.4416)
(-23.3603 -29.6409 67.1357)
(-23.6147 -29.5967 66.8218)
(-23.8535 -29.5152 66.5027)
(-24.0737 -29.3972 66.1823)
(-21.8223 -43.9902 77.2222)
(-22.5153 -44.0836 76.6688)
(-21.118 -43.7798 77.727)
(-20.4166 -43.4567 78.1729)
(-19.7324 -43.0274 78.5507)
(-19.0793 -42.5007 78.8529)
(-18.4707 -41.8873 79.0733)
(-17.919 -41.1997 79.2073)
(-17.4353 -40.4519 79.2523)
(-23.1828 -44.0581 76.078)
(-23.8111 -43.9142 75.4618)
(-24.3876 -43.6548 74.8329)
(-18.66 -39.7448 80.6665)
(-8.93438 -1.08483 65.54)
(-9 -1.10218e-15 65.54)
(-8.93438 1.08483 65.54)
(-8.73848 2.15384 65.54)
(-8.41515 3.19144 65.54)
(-7.9691 4.18251 65.54)
(-7.40685 5.11258 65.54)
(-6.7366 5.9681 65.54)
(-5.9681 6.7366 65.54)
(-5.11258 7.40685 65.54)
(-4.18251 7.9691 65.54)
(-3.19144 8.41515 65.54)
(-2.15384 8.73848 65.54)
(-1.08483 8.93438 65.54)
(5.51091e-16 9 65.54)
(1.08483 8.93438 65.54)
(2.15384 8.73848 65.54)
(3.19144 8.41515 65.54)
(4.18251 7.9691 65.54)
(5.11258 7.40685 65.54)
(5.9681 6.7366 65.54)
(6.7366 5.9681 65.54)
(7.40685 5.11258 65.54)
(7.9691 4.18251 65.54)
(8.41515 3.19144 65.54)
(8.73848 2.15384 65.54)
(8.93438 1.08483 65.54)
(9 0 65.54)
(8.93438 -1.08483 65.54)
(8.73848 -2.15384 65.54)
(8.41515 -3.19144 65.54)
(7.9691 -4.18251 65.54)
(7.40685 -5.11258 65.54)
(6.7366 -5.9681 65.54)
(5.9681 -6.7366 65.54)
(5.11258 -7.40685 65.54)
(4.18251 -7.9691 65.54)
(3.19144 -8.41515 65.54)
(2.15384 -8.73848 65.54)
(1.08483 -8.93438 65.54)
(5.51091e-16 -9 65.54)
(-1.08483 -8.93438 65.54)
(-2.15384 -8.73848 65.54)
(-3.19144 -8.41515 65.54)
(-4.18251 -7.9691 65.54)
(-5.11258 -7.40685 65.54)
(-5.9681 -6.7366 65.54)
(-6.7366 -5.9681 65.54)
(-7.40685 -5.11258 65.54)
(-7.9691 -4.18251 65.54)
(-8.41515 -3.19144 65.54)
(-8.73848 -2.15384 65.54)
(-8.93438 1.08483 85.54)
(-9 -7.7796e-15 85.54)
(-8.93438 -1.08483 85.54)
(-8.73848 -2.15384 85.54)
(-8.41515 -3.19144 85.54)
(-7.9691 -4.18251 85.54)
(-7.40685 -5.11258 85.54)
(-6.7366 -5.9681 85.54)
(-5.9681 -6.7366 85.54)
(-5.11258 -7.40685 85.54)
(-4.18251 -7.9691 85.54)
(-3.19144 -8.41515 85.54)
(-2.15384 -8.73848 85.54)
(-1.08483 -8.93438 85.54)
(5.51091e-16 -9 85.54)
(1.08483 -8.93438 85.54)
(2.15384 -8.73848 85.54)
(3.19144 -8.41515 85.54)
(4.18251 -7.9691 85.54)
(5.11258 -7.40685 85.54)
(5.9681 -6.7366 85.54)
(6.7366 -5.9681 85.54)
(7.40685 -5.11258 85.54)
(7.9691 -4.18251 85.54)
(8.41515 -3.19144 85.54)
(8.73848 -2.15384 85.54)
(8.93438 -1.08483 85.54)
(9 -8.88178e-15 85.54)
(8.93438 1.08483 85.54)
(8.73848 2.15384 85.54)
(8.41515 3.19144 85.54)
(7.9691 4.18251 85.54)
(7.40685 5.11258 85.54)
(6.7366 5.9681 85.54)
(5.9681 6.7366 85.54)
(5.11258 7.40685 85.54)
(4.18251 7.9691 85.54)
(3.19144 8.41515 85.54)
(2.15384 8.73848 85.54)
(1.08483 8.93438 85.54)
(5.51091e-16 9 85.54)
(-1.08483 8.93438 85.54)
(-2.15384 8.73848 85.54)
(-3.19144 8.41515 85.54)
(-4.18251 7.9691 85.54)
(-5.11258 7.40685 85.54)
(-5.9681 6.7366 85.54)
(-6.7366 5.9681 85.54)
(-7.40685 5.11258 85.54)
(-7.9691 4.18251 85.54)
(-8.41515 3.19144 85.54)
(-8.73848 2.15384 85.54)
(5 -6.72257e-14 215.54)
(4.93525 -0.802056 215.54)
(4.93525 0.802056 215.54)
(4.74268 1.58334 215.54)
(4.42728 2.32362 215.54)
(3.99721 3.00371 215.54)
(3.46362 3.60601 215.54)
(2.84032 4.11492 215.54)
(2.14346 4.51725 215.54)
(1.39109 4.80259 215.54)
(0.602683 4.96354 215.54)
(-0.20133 4.99594 215.54)
(-1.00013 4.89895 215.54)
(-1.77302 4.67508 215.54)
(-2.5 4.33013 215.54)
(-3.16223 3.87302 215.54)
(-3.74255 3.31561 215.54)
(-4.22595 2.67233 215.54)
(-4.5999 1.95983 215.54)
(-4.85471 1.19658 215.54)
(-4.98379 0.402333 215.54)
(-4.98379 -0.402333 215.54)
(-4.85471 -1.19658 215.54)
(-4.5999 -1.95983 215.54)
(-4.22595 -2.67233 215.54)
(-3.74255 -3.31561 215.54)
(-3.16223 -3.87302 215.54)
(-2.5 -4.33013 215.54)
(-1.77302 -4.67508 215.54)
(-1.00013 -4.89895 215.54)
(-0.20133 -4.99594 215.54)
(0.602683 -4.96354 215.54)
(1.39109 -4.80259 215.54)
(2.14346 -4.51725 215.54)
(2.84032 -4.11492 215.54)
(3.46362 -3.60601 215.54)
(3.99721 -3.00371 215.54)
(4.42728 -2.32362 215.54)
(4.74268 -1.58334 215.54)
(3.93923 -0.694593 -85.46)
(4 6.75473e-14 -85.46)
(3.75877 -1.36808 -85.46)
(3.4641 -2 -85.46)
(3.06418 -2.57115 -85.46)
(2.57115 -3.06418 -85.46)
(2 -3.4641 -85.46)
(1.36808 -3.75877 -85.46)
(0.694593 -3.93923 -85.46)
(-2.44929e-16 -4 -85.46)
(-0.694593 -3.93923 -85.46)
(-1.36808 -3.75877 -85.46)
(-2 -3.4641 -85.46)
(-2.57115 -3.06418 -85.46)
(-3.06418 -2.57115 -85.46)
(-3.4641 -2 -85.46)
(-3.75877 -1.36808 -85.46)
(-3.93923 -0.694593 -85.46)
(-4 6.70575e-14 -85.46)
(-3.93923 0.694593 -85.46)
(-3.75877 1.36808 -85.46)
(-3.4641 2 -85.46)
(-3.06418 2.57115 -85.46)
(-2.57115 3.06418 -85.46)
(-2 3.4641 -85.46)
(-1.36808 3.75877 -85.46)
(-0.694593 3.93923 -85.46)
(-2.44929e-16 4 -85.46)
(0.694593 3.93923 -85.46)
(1.36808 3.75877 -85.46)
(2 3.4641 -85.46)
(2.57115 3.06418 -85.46)
(3.06418 2.57115 -85.46)
(3.4641 2 -85.46)
(3.75877 1.36808 -85.46)
(3.93923 0.694593 -85.46)
(8.93438 -1.08483 -84.46)
(9 6.77156e-14 -84.46)
(8.73848 -2.15384 -84.46)
(8.41515 -3.19144 -84.46)
(7.9691 -4.18251 -84.46)
(7.40685 -5.11258 -84.46)
(6.7366 -5.9681 -84.46)
(5.9681 -6.7366 -84.46)
(5.11258 -7.40685 -84.46)
(4.18251 -7.9691 -84.46)
(3.19144 -8.41515 -84.46)
(2.15384 -8.73848 -84.46)
(1.08483 -8.93438 -84.46)
(-5.51091e-16 -9 -84.46)
(-1.08483 -8.93438 -84.46)
(-2.15384 -8.73848 -84.46)
(-3.19144 -8.41515 -84.46)
(-4.18251 -7.9691 -84.46)
(-5.11258 -7.40685 -84.46)
(-5.9681 -6.7366 -84.46)
(-6.7366 -5.9681 -84.46)
(-7.40685 -5.11258 -84.46)
(-7.9691 -4.18251 -84.46)
(-8.41515 -3.19144 -84.46)
(-8.73848 -2.15384 -84.46)
(-8.93438 -1.08483 -84.46)
(-9 6.66134e-14 -84.46)
(-8.93438 1.08483 -84.46)
(-8.73848 2.15384 -84.46)
(-8.41515 3.19144 -84.46)
(-7.9691 4.18251 -84.46)
(-7.40685 5.11258 -84.46)
(-6.7366 5.9681 -84.46)
(-5.9681 6.7366 -84.46)
(-5.11258 7.40685 -84.46)
(-4.18251 7.9691 -84.46)
(-3.19144 8.41515 -84.46)
(-2.15384 8.73848 -84.46)
(-1.08483 8.93438 -84.46)
(-5.51091e-16 9 -84.46)
(1.08483 8.93438 -84.46)
(2.15384 8.73848 -84.46)
(3.19144 8.41515 -84.46)
(4.18251 7.9691 -84.46)
(5.11258 7.40685 -84.46)
(5.9681 6.7366 -84.46)
(6.7366 5.9681 -84.46)
(7.40685 5.11258 -84.46)
(7.9691 4.18251 -84.46)
(8.41515 3.19144 -84.46)
(8.73848 2.15384 -84.46)
(8.93438 1.08483 -84.46)
(8.93438 -1.08483 -64.46)
(9 5.66294e-14 -64.46)
(8.93438 1.08483 -64.46)
(8.73848 2.15384 -64.46)
(8.41515 3.19144 -64.46)
(7.9691 4.18251 -64.46)
(7.40685 5.11258 -64.46)
(6.7366 5.9681 -64.46)
(5.9681 6.7366 -64.46)
(5.11258 7.40685 -64.46)
(4.18251 7.9691 -64.46)
(3.19144 8.41515 -64.46)
(2.15384 8.73848 -64.46)
(1.08483 8.93438 -64.46)
(-5.51091e-16 9 -64.46)
(-1.08483 8.93438 -64.46)
(-2.15384 8.73848 -64.46)
(-3.19144 8.41515 -64.46)
(-4.18251 7.9691 -64.46)
(-5.11258 7.40685 -64.46)
(-5.9681 6.7366 -64.46)
(-6.7366 5.9681 -64.46)
(-7.40685 5.11258 -64.46)
(-7.9691 4.18251 -64.46)
(-8.41515 3.19144 -64.46)
(-8.73848 2.15384 -64.46)
(-8.93438 1.08483 -64.46)
(-9 5.77316e-14 -64.46)
(-8.93438 -1.08483 -64.46)
(-8.73848 -2.15384 -64.46)
(-8.41515 -3.19144 -64.46)
(-7.9691 -4.18251 -64.46)
(-7.40685 -5.11258 -64.46)
(-6.7366 -5.9681 -64.46)
(-5.9681 -6.7366 -64.46)
(-5.11258 -7.40685 -64.46)
(-4.18251 -7.9691 -64.46)
(-3.19144 -8.41515 -64.46)
(-2.15384 -8.73848 -64.46)
(-1.08483 -8.93438 -64.46)
(-5.51091e-16 -9 -64.46)
(1.08483 -8.93438 -64.46)
(2.15384 -8.73848 -64.46)
(3.19144 -8.41515 -64.46)
(4.18251 -7.9691 -64.46)
(5.11258 -7.40685 -64.46)
(5.9681 -6.7366 -64.46)
(6.7366 -5.9681 -64.46)
(7.40685 -5.11258 -64.46)
(7.9691 -4.18251 -64.46)
(8.41515 -3.19144 -64.46)
(8.73848 -2.15384 -64.46)
(27.1855 40.8938 -76.1422)
(26.9199 41.5406 -75.5888)
(27.3555 40.1786 -76.647)
(27.4263 39.4096 -77.0929)
(27.3966 38.6024 -77.4707)
(27.267 37.7735 -77.7729)
(27.0401 36.9398 -77.9933)
(26.7205 36.1181 -78.1273)
(26.3147 35.3253 -78.1723)
(26.5641 42.1059 -74.998)
(26.1252 42.5781 -74.3818)
(25.6124 42.9477 -73.7529)
(11.8574 36.1096 -66.2044)
(13.256 35.6199 -64.8752)
(24.9005 43.2853 -75.7961)
(24.3876 43.6548 -75.1671)
(25.3393 42.813 -76.4122)
(25.6952 42.2477 -77.003)
(25.9608 41.6009 -77.5564)
(26.1307 40.8857 -78.0612)
(26.2016 40.1167 -78.5071)
(26.1719 39.3095 -78.885)
(26.0423 38.4806 -79.1872)
(25.8153 37.6469 -79.4075)
(25.4957 36.8252 -79.5415)
(25.09 36.0325 -79.5865)
(17.8769 33.5341 -74.4405)
(17.7309 33.6115 -74.2329)
(17.6578 33.65 -74.1291)
(17.5846 33.6883 -74.0253)
(17.5114 33.7264 -73.9215)
(17.438 33.7644 -73.8177)
(17.3645 33.8022 -73.7139)
(17.2174 33.8774 -73.5063)
(17.291 33.8399 -73.6101)
(17.1437 33.9148 -73.4025)
(15.9534 34.4907 -71.7411)
(15.8032 34.5598 -71.5333)
(15.728 34.5941 -71.4294)
(15.6526 34.6282 -71.3255)
(15.5773 34.6622 -71.2216)
(15.5018 34.696 -71.1177)
(14.5163 35.1252 -69.7671)
(15.0475 34.8954 -70.4944)
(15.1234 34.8626 -70.5983)
(15.1992 34.8296 -70.7022)
(15.275 34.7965 -70.8061)
(15.3507 34.7631 -70.91)
(15.4263 34.7297 -71.0138)
(21.8223 -43.9902 -76.1422)
(22.5153 -44.0836 -75.5888)
(21.118 -43.7798 -76.647)
(20.4166 -43.4567 -77.0929)
(19.7324 -43.0274 -77.4707)
(19.0793 -42.5007 -77.7729)
(18.4707 -41.8873 -77.9933)
(17.919 -41.1997 -78.1273)
(17.4353 -40.4519 -78.1723)
(23.1828 -44.0581 -74.998)
(23.8111 -43.9142 -74.3818)
(24.3876 -43.6548 -73.7529)
(25.3431 -28.3236 -66.2044)
(24.2198 -29.29 -64.8752)
(25.0359 -43.2071 -75.7961)
(25.6124 -42.9477 -75.1671)
(24.4075 -43.351 -76.4122)
(23.74 -43.3765 -77.003)
(23.0471 -43.2831 -77.5564)
(22.3427 -43.0727 -78.0612)
(21.6413 -42.7496 -78.5071)
(20.9571 -42.3203 -78.885)
(20.3041 -41.7936 -79.1872)
(19.6955 -41.1802 -79.4075)
(19.1437 -40.4926 -79.5415)
(18.66 -39.7448 -79.5865)
(20.1029 -32.2489 -74.4405)
(20.243 -32.1612 -74.2329)
(20.3128 -32.1171 -74.1291)
(20.3826 -32.0729 -74.0253)
(20.4523 -32.0285 -73.9215)
(20.5218 -31.984 -73.8177)
(20.5913 -31.9393 -73.7139)
(20.73 -31.8494 -73.5063)
(20.6607 -31.8944 -73.6101)