/*--------------------------------*- C++ -*----------------------------------*\
| =========                 |                                                 |
| \\      /  F ield         | OpenFOAM: The Open Source CFD Toolbox           |
|  \\    /   O peration     | Version:  2206                                  |
|   \\  /    A nd           | Website:  www.openfoam.com                      |
|    \\/     M anipulation  |                                                 |
\*---------------------------------------------------------------------------*/
FoamFile
{
    version     2.0;
    format      ascii;
    arch        "LSB;label=64;scalar=64";
    class       featureEdgeMesh;
    location    "constant/triSurface";
    object      GeoShaft.eMesh;
}
// * * * * * * * * * * * * * * * * * * * * * * * * * * * * * * * * * * * * * //


// points:

10578
(
(7.6293449 6.4647579 -81.00074)
(7.277741 16.912066 -73.573219)
(15.808998 34.55164 -68.352898)
(14.623288 35.069817 -66.726295)
(-0.28556052 -9.9959221 -65.459999)
(-1.4231484 -9.8982143 -65.459999)
(-1.4231484 -9.8982143 -83.459999)
(-2.5421834 -9.6714687 -83.459999)
(-2.5421834 -9.6714687 -65.459999)
(-3.628077 -9.3186407 -83.459999)
(-3.628077 -9.3186407 -65.459999)
(-4.6666732 -8.8443289 -83.459999)
(-4.6666732 -8.8443289 -65.459999)
(-5.6444321 -8.2547188 -83.459999)
(-5.6444321 -8.2547188 -65.459999)
(-6.5486073 -7.5574956 -83.459999)
(-6.5486073 -7.5574956 -65.459999)
(-7.3674116 -6.7617488 -83.459999)
(-7.3674116 -6.7617488 -65.459999)
(-8.0901699 -5.8778524 -65.459999)
(-8.7074604 -4.9173293 -65.459999)
(-9.211237 -3.8927011 -65.459999)
(-9.4248791 -3.3424015 -67.743462)
(-9.5949297 -2.8173256 -65.459999)
(-9.8535385 -1.7052219 -65.459999)
(-9.9836912 -0.5708881 -65.459999)
(-9.9836912 0.5708881 -65.459999)
(-9.8535385 1.7052219 -65.459999)
(-9.5949297 2.8173256 -65.459999)
(-9.211237 3.8927011 -65.459999)
(-8.7074604 4.9173293 -65.459999)
(-8.0901699 5.8778524 -65.459999)
(-7.3674116 6.7617488 -65.459999)
(-7.3674116 6.7617488 -83.459999)
(-6.5486073 7.5574956 -83.459999)
(-6.5486073 7.5574956 -65.459999)
(-5.6444321 8.2547188 -83.459999)
(-5.6444321 8.2547188 -65.459999)
(-4.6666732 8.8443289 -83.459999)
(-4.6666732 8.8443289 -65.459999)
(-3.628077 9.3186407 -83.459999)
(-3.628077 9.3186407 -65.459999)
(-2.5421834 9.6714687 -83.459999)
(-2.5421834 9.6714687 -65.459999)
(-1.4231484 9.8982143 -83.459999)
(-1.4231484 9.8982143 -65.459999)
(-0.28556052 9.9959221 -65.459999)
(0.85575008 9.9633169 -65.459999)
(1.9859047 9.8008261 -65.459999)
(3.0901699 9.5105648 -65.459999)
(4.15415 9.0963202 -65.459999)
(5.1639748 8.5634899 -65.459999)
(6.1064787 7.9190226 -65.459999)
(6.9693756 7.1713181 -65.459999)
(7.741416 6.3301244 -65.459999)
(8.4125357 5.4064083 -65.459999)
(8.9739847 4.4122109 -65.459999)
(9.4184437 3.3604939 -65.459999)
(9.4184437 3.3604939 -83.459999)
(9.740119 2.2649677 -83.459999)
(9.740119 2.2649677 -65.459999)
(9.9348173 1.1399142 -83.459999)
(9.9348173 1.1399142 -65.459999)
(10 6.4944645e-14 -83.459999)
(10 5.9400334e-14 -65.459999)
(9.9348173 -1.1399142 -83.459999)
(9.9348173 -1.1399142 -65.459999)
(9.740119 -2.2649677 -83.459999)
(9.740119 -2.2649677 -65.459999)
(9.4184437 -3.3604939 -83.459999)
(9.4184437 -3.3604939 -65.459999)
(8.9739847 -4.4122109 -65.459999)
(8.4125357 -5.4064083 -65.459999)
(7.741416 -6.3301244 -65.459999)
(7.6070442 -6.4909844 -67.743462)
(6.9693756 -7.1713181 -65.459999)
(6.1064787 -7.9190226 -65.459999)
(5.1639748 -8.5634899 -65.459999)
(4.15415 -9.0963202 -65.459999)
(3.0901699 -9.5105648 -65.459999)
(1.9859047 -9.8008261 -65.459999)
(0.85575008 -9.9633169 -65.459999)
(8.9739847 -4.4122109 -83.459999)
(8.4125357 -5.4064083 -83.459999)
(7.741416 -6.3301244 -83.459999)
(6.9693756 -7.1713181 -83.459999)
(6.1064787 -7.9190226 -83.459999)
(5.1639748 -8.5634899 -83.459999)
(4.15415 -9.0963202 -83.459999)
(3.0901699 -9.5105648 -83.459999)
(1.9859047 -9.8008261 -83.459999)
(1.7839719 -9.8395853 -81.00074)
(0.85575008 -9.9633169 -83.459999)
(-0.28556052 -9.9959221 -83.459999)
(8.9739847 4.4122109 -83.459999)
(8.4125357 5.4064083 -83.459999)
(7.741416 6.3301244 -83.459999)
(6.9693756 7.1713181 -83.459999)
(6.1064787 7.9190226 -83.459999)
(5.1639748 8.5634899 -83.459999)
(4.15415 9.0963202 -83.459999)
(3.0901699 9.5105648 -83.459999)
(1.9859047 9.8008261 -83.459999)
(0.85575008 9.9633169 -83.459999)
(-0.28556052 9.9959221 -83.459999)
(-8.0901699 5.8778524 -83.459999)
(-8.7074604 4.9173293 -83.459999)
(-9.211237 3.8927011 -83.459999)
(-9.4133167 3.3748279 -81.00074)
(-9.5949297 2.8173256 -83.459999)
(-9.8535385 1.7052219 -83.459999)
(-9.9836912 0.5708881 -83.459999)
(-9.9836912 -0.5708881 -83.459999)
(-9.8535385 -1.7052219 -83.459999)
(-9.5949297 -2.8173256 -83.459999)
(-9.211237 -3.8927011 -83.459999)
(-8.7074604 -4.9173293 -83.459999)
(-8.0901699 -5.8778524 -83.459999)
(11.007408 -14.758741 -73.573219)
(22.018097 -30.966812 -68.352898)
(23.059708 -30.199047 -66.726295)
(-18.285149 -2.1533246 -73.573219)
(-37.827095 -3.5848248 -68.352898)
(-37.682995 -4.8707695 -66.726295)
(-7.6293449 6.4647579 82.080734)
(-25.089954 36.032455 80.666527)
(-26.171883 39.309544 79.964958)
(-26.042259 38.480644 80.267151)
(-26.201569 40.116714 79.587082)
(-26.130713 40.885727 79.141212)
(-25.960754 41.600925 78.636421)
(-25.695156 42.247746 78.083)
(-25.339327 42.813026 77.492203)
(-24.900505 43.285255 76.876053)
(-25.815336 37.646889 80.487511)
(-25.495733 36.825249 80.621544)
(-7.277741 16.912066 74.653221)
(8.0901699 5.8778524 66.540001)
(7.3674116 6.7617488 66.540001)
(7.3674116 6.7617488 84.540001)
(6.5486073 7.5574956 84.540001)
(6.5486073 7.5574956 66.540001)
(5.6444321 8.2547188 84.540001)
(5.6444321 8.2547188 66.540001)
(4.6666732 8.8443289 84.540001)
(4.6666732 8.8443289 66.540001)
(3.628077 9.3186407 84.540001)
(3.628077 9.3186407 66.540001)
(2.5421834 9.6714687 84.540001)
(2.5421834 9.6714687 66.540001)
(1.4231484 9.8982143 84.540001)
(1.4231484 9.8982143 66.540001)
(0.28556052 9.9959221 66.540001)
(-0.85575008 9.9633169 66.540001)
(-1.9859047 9.8008261 66.540001)
(-3.0901699 9.5105648 66.540001)
(-4.15415 9.0963202 66.540001)
(-5.1639748 8.5634899 66.540001)
(-6.1064787 7.9190226 66.540001)
(-6.9693756 7.1713181 66.540001)
(-7.741416 6.3301244 66.540001)
(-8.4125357 5.4064083 66.540001)
(-8.9739847 4.4122109 66.540001)
(-9.4184437 3.3604939 66.540001)
(-9.4184437 3.3604939 84.540001)
(-9.740119 2.2649677 84.540001)
(-9.740119 2.2649677 66.540001)
(-9.9348173 1.1399142 84.540001)
(-9.9348173 1.1399142 66.540001)
(-10 -9.662342e-15 84.540001)
(-10 7.8055759e-16 66.540001)
(-9.9348173 -1.1399142 84.540001)
(-9.9348173 -1.1399142 66.540001)
(-9.740119 -2.2649677 84.540001)
(-9.740119 -2.2649677 66.540001)
(-9.4184437 -3.3604939 84.540001)
(-9.4184437 -3.3604939 66.540001)
(-8.9739847 -4.4122109 66.540001)
(-8.4125357 -5.4064083 66.540001)
(-7.741416 -6.3301244 66.540001)
(-7.6070442 -6.4909844 68.823463)
(-6.9693756 -7.1713181 66.540001)
(-6.1064787 -7.9190226 66.540001)
(-5.1639748 -8.5634899 66.540001)
(-4.15415 -9.0963202 66.540001)
(-3.0901699 -9.5105648 66.540001)
(-1.9859047 -9.8008261 66.540001)
(-0.85575008 -9.9633169 66.540001)
(0.28556052 -9.9959221 66.540001)
(1.4231484 -9.8982143 66.540001)
(1.4231484 -9.8982143 84.540001)
(2.5421834 -9.6714687 84.540001)
(2.5421834 -9.6714687 66.540001)
(3.628077 -9.3186407 84.540001)
(3.628077 -9.3186407 66.540001)
(4.6666732 -8.8443289 84.540001)
(4.6666732 -8.8443289 66.540001)
(5.6444321 -8.2547188 84.540001)
(5.6444321 -8.2547188 66.540001)
(6.5486073 -7.5574956 84.540001)
(6.5486073 -7.5574956 66.540001)
(7.3674116 -6.7617488 84.540001)
(7.3674116 -6.7617488 66.540001)
(8.0901699 -5.8778524 66.540001)
(8.7074604 -4.9173293 66.540001)
(9.211237 -3.8927011 66.540001)
(9.4248791 -3.3424015 68.823463)
(9.5949297 -2.8173256 66.540001)
(9.8535385 -1.7052219 66.540001)
(9.9836912 -0.5708881 66.540001)
(9.9836912 0.5708881 66.540001)
(9.8535385 1.7052219 66.540001)
(9.5949297 2.8173256 66.540001)
(9.211237 3.8927011 66.540001)
(8.7074604 4.9173293 66.540001)
(8.0901699 -5.8778524 84.540001)
(8.7074604 -4.9173293 84.540001)
(9.211237 -3.8927011 84.540001)
(9.5949297 -2.8173256 84.540001)
(9.8535385 -1.7052219 84.540001)
(9.9836912 -0.5708881 84.540001)
(9.9836912 0.5708881 84.540001)
(9.8535385 1.7052219 84.540001)
(9.5949297 2.8173256 84.540001)
(9.4133167 3.3748279 82.080734)
(9.211237 3.8927011 84.540001)
(8.7074604 4.9173293 84.540001)
(8.0901699 5.8778524 84.540001)
(-8.9739847 4.4122109 84.540001)
(-8.4125357 5.4064083 84.540001)
(-7.741416 6.3301244 84.540001)
(-6.9693756 7.1713181 84.540001)
(-6.1064787 7.9190226 84.540001)
(-5.1639748 8.5634899 84.540001)
(-4.15415 9.0963202 84.540001)
(-3.0901699 9.5105648 84.540001)
(-1.9859047 9.8008261 84.540001)
(-0.85575008 9.9633169 84.540001)
(0.28556052 9.9959221 84.540001)
(0.28556052 -9.9959221 84.540001)
(-0.85575008 -9.9633169 84.540001)
(-1.7839719 -9.8395853 82.080734)
(-1.9859047 -9.8008261 84.540001)
(-3.0901699 -9.5105648 84.540001)
(-4.15415 -9.0963202 84.540001)
(-5.1639748 -8.5634899 84.540001)
(-6.1064787 -7.9190226 84.540001)
(-6.9693756 -7.1713181 84.540001)
(-7.741416 -6.3301244 84.540001)
(-8.4125357 -5.4064083 84.540001)
(-8.9739847 -4.4122109 84.540001)
(43.75 3.7123106 80.666527)
(47.129005 3.0107436 79.964958)
(46.346344 3.3129368 80.267151)
(47.84288 2.6328659 79.587082)
(48.473434 2.1869962 79.141212)
(49.007835 1.6822107 78.636421)
(49.4352 1.1287855 78.083)
(49.74683 0.53798699 77.492203)
(49.936382 -0.07815811 76.876053)
(45.51083 3.5332932 80.487511)
(44.639469 3.6673274 80.621544)
(18.285149 -2.1533246 74.653221)
(-22.018097 -30.966812 69.432892)
(-23.059708 -30.199047 67.806297)
(-20.232702 -32.161743 72.132896)
(-22.515299 -44.083637 76.668785)
(-21.822336 -43.990242 77.222214)
(-21.117979 -43.779831 77.726997)
(-20.416567 -43.456688 78.172867)
(-19.732378 -43.027393 78.550743)
(-17.435299 -40.451874 79.252312)
(-19.07934 -42.500687 78.852936)
(-18.470747 -41.887287 79.073296)
(-17.918991 -41.199684 79.207329)
(-23.18276 -44.058121 76.077988)
(-23.811134 -43.914204 75.461845)
(-24.387627 -43.654823 74.832893)
(-18.660046 -39.744766 80.666527)
(-4.9837866 0.40233284 47.42889)
(-4.9837866 -0.40233284 47.42889)
(-4.8547091 -1.1965783 47.42889)
(-4.5998974 -1.959833 47.42889)
(-4.2259502 -2.6723292 47.42889)
(-3.7425537 -3.3156133 47.42889)
(-3.1622269 -3.8730247 47.42889)
(-2.5 -4.3301272 47.42889)
(-1.7730244 -4.6750813 47.42889)
(-1.0001285 -4.8989534 47.42889)
(-0.20132969 -4.995945 47.42889)
(0.60268342 -4.9635444 47.42889)
(1.3910873 -4.8025904 47.42889)
(2.1434629 -4.517252 47.42889)
(2.8403237 -4.1149192 47.42889)
(3.4636219 -3.6060123 47.42889)
(3.9972138 -3.0037112 47.42889)
(4.4272799 -2.3236158 47.42889)
(4.742682 -1.5833399 47.42889)
(4.9352512 -0.80205643 47.42889)
(5 8.6552723e-15 47.42889)
(4.9352512 0.80205643 47.42889)
(4.742682 1.5833399 47.42889)
(4.4272799 2.3236158 47.42889)
(3.9972138 3.0037112 47.42889)
(3.4636219 3.6060123 47.42889)
(2.8403237 4.1149192 47.42889)
(2.1434629 4.517252 47.42889)
(1.3910873 4.8025904 47.42889)
(0.60268342 4.9635444 47.42889)
(-0.20132969 4.995945 47.42889)
(-1.0001285 4.8989534 47.42889)
(-1.7730244 4.6750813 47.42889)
(-2.5 4.3301272 47.42889)
(-3.1622269 3.8730247 47.42889)
(-3.7425537 3.3156133 47.42889)
(-4.2259502 2.6723292 47.42889)
(-4.5998974 1.959833 47.42889)
(-4.8547091 1.1965783 47.42889)
(-8.9343796 -1.0848302 65.540001)
(-9 -1.1021821e-15 65.540001)
(-8.9343796 1.0848302 65.540001)
(-8.7384768 2.153841 65.540001)
(-8.4151459 3.1914439 65.540001)
(-7.9691043 4.1825085 65.540001)
(-7.4068546 5.1125827 65.540001)
(-6.7365966 5.9681039 65.540001)
(-5.9681039 6.7365966 65.540001)
(-5.1125827 7.4068546 65.540001)
(-4.1825085 7.9691043 65.540001)
(-3.1914439 8.4151459 65.540001)
(-2.153841 8.7384768 65.540001)
(-1.0848302 8.9343796 65.540001)
(5.5109107e-16 9 65.540001)
(1.0848302 8.9343796 65.540001)
(2.153841 8.7384768 65.540001)
(3.1914439 8.4151459 65.540001)
(4.1825085 7.9691043 65.540001)
(5.1125827 7.4068546 65.540001)
(5.9681039 6.7365966 65.540001)
(6.7365966 5.9681039 65.540001)
(7.4068546 5.1125827 65.540001)
(7.9691043 4.1825085 65.540001)
(8.4151459 3.1914439 65.540001)
(8.7384768 2.153841 65.540001)
(8.9343796 1.0848302 65.540001)
(9 0 65.540001)
(8.9343796 -1.0848302 65.540001)
(8.7384768 -2.153841 65.540001)
(8.4151459 -3.1914439 65.540001)
(7.9691043 -4.1825085 65.540001)
(7.4068546 -5.1125827 65.540001)
(6.7365966 -5.9681039 65.540001)
(5.9681039 -6.7365966 65.540001)
(5.1125827 -7.4068546 65.540001)
(4.1825085 -7.9691043 65.540001)
(3.1914439 -8.4151459 65.540001)
(2.153841 -8.7384768 65.540001)
(1.0848302 -8.9343796 65.540001)
(5.5109107e-16 -9 65.540001)
(-1.0848302 -8.9343796 65.540001)
(-2.153841 -8.7384768 65.540001)
(-3.1914439 -8.4151459 65.540001)
(-4.1825085 -7.9691043 65.540001)
(-5.1125827 -7.4068546 65.540001)
(-5.9681039 -6.7365966 65.540001)
(-6.7365966 -5.9681039 65.540001)
(-7.4068546 -5.1125827 65.540001)
(-7.9691043 -4.1825085 65.540001)
(-8.4151459 -3.1914439 65.540001)
(-8.7384768 -2.153841 65.540001)
(-8.9343796 1.0848302 85.540001)
(-9 -7.7796021e-15 85.540001)
(-8.9343796 -1.0848302 85.540001)
(-8.7384768 -2.153841 85.540001)
(-8.4151459 -3.1914439 85.540001)
(-7.9691043 -4.1825085 85.540001)
(-7.4068546 -5.1125827 85.540001)
(-6.7365966 -5.9681039 85.540001)
(-5.9681039 -6.7365966 85.540001)
(-5.1125827 -7.4068546 85.540001)
(-4.1825085 -7.9691043 85.540001)
(-3.1914439 -8.4151459 85.540001)
(-2.153841 -8.7384768 85.540001)
(-1.0848302 -8.9343796 85.540001)
(5.5109107e-16 -9 85.540001)
(1.0848302 -8.9343796 85.540001)
(2.153841 -8.7384768 85.540001)
(3.1914439 -8.4151459 85.540001)
(4.1825085 -7.9691043 85.540001)
(5.1125827 -7.4068546 85.540001)
(5.9681039 -6.7365966 85.540001)
(6.7365966 -5.9681039 85.540001)
(7.4068546 -5.1125827 85.540001)
(7.9691043 -4.1825085 85.540001)
(8.4151459 -3.1914439 85.540001)
(8.7384768 -2.153841 85.540001)
(8.9343796 -1.0848302 85.540001)
(9 -8.8817842e-15 85.540001)
(8.9343796 1.0848302 85.540001)
(8.7384768 2.153841 85.540001)
(8.4151459 3.1914439 85.540001)
(7.9691043 4.1825085 85.540001)
(7.4068546 5.1125827 85.540001)
(6.7365966 5.9681039 85.540001)
(5.9681039 6.7365966 85.540001)
(5.1125827 7.4068546 85.540001)
(4.1825085 7.9691043 85.540001)
(3.1914439 8.4151459 85.540001)
(2.153841 8.7384768 85.540001)
(1.0848302 8.9343796 85.540001)
(5.5109107e-16 9 85.540001)
(-1.0848302 8.9343796 85.540001)
(-2.153841 8.7384768 85.540001)
(-3.1914439 8.4151459 85.540001)
(-4.1825085 7.9691043 85.540001)
(-5.1125827 7.4068546 85.540001)
(-5.9681039 6.7365966 85.540001)
(-6.7365966 5.9681039 85.540001)
(-7.4068546 5.1125827 85.540001)
(-7.9691043 4.1825085 85.540001)
(-8.4151459 3.1914439 85.540001)
(-8.7384768 2.153841 85.540001)
(5 -6.7225705e-14 215.53999)
(4.9352512 -0.80205643 215.53999)
(4.9352512 0.80205643 215.53999)
(4.742682 1.5833399 215.53999)
(4.4272799 2.3236158 215.53999)
(3.9972138 3.0037112 215.53999)
(3.4636219 3.6060123 215.53999)
(2.8403237 4.1149192 215.53999)
(2.1434629 4.517252 215.53999)
(1.3910873 4.8025904 215.53999)
(0.60268342 4.9635444 215.53999)
(-0.20132969 4.995945 215.53999)
(-1.0001285 4.8989534 215.53999)
(-1.7730244 4.6750813 215.53999)
(-2.5 4.3301272 215.53999)
(-3.1622269 3.8730247 215.53999)
(-3.7425537 3.3156133 215.53999)
(-4.2259502 2.6723292 215.53999)
(-4.5998974 1.959833 215.53999)
(-4.8547091 1.1965783 215.53999)
(-4.9837866 0.40233284 215.53999)
(-4.9837866 -0.40233284 215.53999)
(-4.8547091 -1.1965783 215.53999)
(-4.5998974 -1.959833 215.53999)
(-4.2259502 -2.6723292 215.53999)
(-3.7425537 -3.3156133 215.53999)
(-3.1622269 -3.8730247 215.53999)
(-2.5 -4.3301272 215.53999)
(-1.7730244 -4.6750813 215.53999)
(-1.0001285 -4.8989534 215.53999)
(-0.20132969 -4.995945 215.53999)
(0.60268342 -4.9635444 215.53999)
(1.3910873 -4.8025904 215.53999)
(2.1434629 -4.517252 215.53999)
(2.8403237 -4.1149192 215.53999)
(3.4636219 -3.6060123 215.53999)
(3.9972138 -3.0037112 215.53999)
(4.4272799 -2.3236158 215.53999)
(4.742682 -1.5833399 215.53999)
(-4.9837866 -0.40233284 96.928886)
(-4.9837866 0.40233284 96.928886)
(-4.8547091 1.1965783 96.928886)
(-4.5998974 1.959833 96.928886)
(-4.2259502 2.6723292 96.928886)
(-3.7425537 3.3156133 96.928886)
(-3.1622269 3.8730247 96.928886)
(-2.5 4.3301272 96.928886)
(-1.7730244 4.6750813 96.928886)
(-1.0001285 4.8989534 96.928886)
(-0.20132969 4.995945 96.928886)
(0.60268342 4.9635444 96.928886)
(1.3910873 4.8025904 96.928886)
(2.1434629 4.517252 96.928886)
(2.8403237 4.1149192 96.928886)
(3.4636219 3.6060123 96.928886)
(3.9972138 3.0037112 96.928886)
(4.4272799 2.3236158 96.928886)
(4.742682 1.5833399 96.928886)
(4.9352512 0.80205643 96.928886)
(5 -1.4551791e-14 96.928886)
(4.9352512 -0.80205643 96.928886)
(4.742682 -1.5833399 96.928886)
(4.4272799 -2.3236158 96.928886)
(3.9972138 -3.0037112 96.928886)
(3.4636219 -3.6060123 96.928886)
(2.8403237 -4.1149192 96.928886)
(2.1434629 -4.517252 96.928886)
(1.3910873 -4.8025904 96.928886)
(0.60268342 -4.9635444 96.928886)
(-0.20132969 -4.995945 96.928886)
(-1.0001285 -4.8989534 96.928886)
(-1.7730244 -4.6750813 96.928886)
(-2.5 -4.3301272 96.928886)
(-3.1622269 -3.8730247 96.928886)
(-3.7425537 -3.3156133 96.928886)
(-4.2259502 -2.6723292 96.928886)
(-4.5998974 -1.959833 96.928886)
(-4.8547091 -1.1965783 96.928886)
(4 6.7547327e-14 -85.459999)
(3.9392309 -0.69459271 -85.459999)
(3.7587705 -1.3680806 -85.459999)
(3.4641016 -2 -85.459999)
(3.0641778 -2.5711505 -85.459999)
(2.5711505 -3.0641778 -85.459999)
(2 -3.4641016 -85.459999)
(1.3680806 -3.7587705 -85.459999)
(0.69459271 -3.9392309 -85.459999)
(-2.4492937e-16 -4 -85.459999)
(-0.69459271 -3.9392309 -85.459999)
(-1.3680806 -3.7587705 -85.459999)
(-2 -3.4641016 -85.459999)
(-2.5711505 -3.0641778 -85.459999)
(-3.0641778 -2.5711505 -85.459999)
(-3.4641016 -2 -85.459999)
(-3.7587705 -1.3680806 -85.459999)
(-3.9392309 -0.69459271 -85.459999)
(-4 6.7057471e-14 -85.459999)
(-3.9392309 0.69459271 -85.459999)
(-3.7587705 1.3680806 -85.459999)
(-3.4641016 2 -85.459999)
(-3.0641778 2.5711505 -85.459999)
(-2.5711505 3.0641778 -85.459999)
(-2 3.4641016 -85.459999)
(-1.3680806 3.7587705 -85.459999)
(-0.69459271 3.9392309 -85.459999)
(-2.4492937e-16 4 -85.459999)
(0.69459271 3.9392309 -85.459999)
(1.3680806 3.7587705 -85.459999)
(2 3.4641016 -85.459999)
(2.5711505 3.0641778 -85.459999)
(3.0641778 2.5711505 -85.459999)
(3.4641016 2 -85.459999)
(3.7587705 1.3680806 -85.459999)
(3.9392309 0.69459271 -85.459999)
(9 6.7715561e-14 -84.459999)
(8.9343796 -1.0848302 -84.459999)
(8.7384768 -2.153841 -84.459999)
(8.4151459 -3.1914439 -84.459999)
(7.9691043 -4.1825085 -84.459999)
(7.4068546 -5.1125827 -84.459999)
(6.7365966 -5.9681039 -84.459999)
(5.9681039 -6.7365966 -84.459999)
(5.1125827 -7.4068546 -84.459999)
(4.1825085 -7.9691043 -84.459999)
(3.1914439 -8.4151459 -84.459999)
(2.153841 -8.7384768 -84.459999)
(1.0848302 -8.9343796 -84.459999)
(-5.5109107e-16 -9 -84.459999)
(-1.0848302 -8.9343796 -84.459999)
(-2.153841 -8.7384768 -84.459999)
(-3.1914439 -8.4151459 -84.459999)
(-4.1825085 -7.9691043 -84.459999)
(-5.1125827 -7.4068546 -84.459999)
(-5.9681039 -6.7365966 -84.459999)
(-6.7365966 -5.9681039 -84.459999)
(-7.4068546 -5.1125827 -84.459999)
(-7.9691043 -4.1825085 -84.459999)
(-8.4151459 -3.1914439 -84.459999)
(-8.7384768 -2.153841 -84.459999)
(-8.9343796 -1.0848302 -84.459999)
(-9 6.6613381e-14 -84.459999)
(-8.9343796 1.0848302 -84.459999)
(-8.7384768 2.153841 -84.459999)
(-8.4151459 3.1914439 -84.459999)
(-7.9691043 4.1825085 -84.459999)
(-7.4068546 5.1125827 -84.459999)
(-6.7365966 5.9681039 -84.459999)
(-5.9681039 6.7365966 -84.459999)
(-5.1125827 7.4068546 -84.459999)
(-4.1825085 7.9691043 -84.459999)
(-3.1914439 8.4151459 -84.459999)
(-2.153841 8.7384768 -84.459999)
(-1.0848302 8.9343796 -84.459999)
(-5.5109107e-16 9 -84.459999)
(1.0848302 8.9343796 -84.459999)
(2.153841 8.7384768 -84.459999)
(3.1914439 8.4151459 -84.459999)
(4.1825085 7.9691043 -84.459999)
(5.1125827 7.4068546 -84.459999)
(5.9681039 6.7365966 -84.459999)
(6.7365966 5.9681039 -84.459999)
(7.4068546 5.1125827 -84.459999)
(7.9691043 4.1825085 -84.459999)
(8.4151459 3.1914439 -84.459999)
(8.7384768 2.153841 -84.459999)
(8.9343796 1.0848302 -84.459999)
(8.9343796 -1.0848302 -64.459999)
(9 5.6629414e-14 -64.459999)
(8.9343796 1.0848302 -64.459999)
(8.7384768 2.153841 -64.459999)
(8.4151459 3.1914439 -64.459999)
(7.9691043 4.1825085 -64.459999)
(7.4068546 5.1125827 -64.459999)
(6.7365966 5.9681039 -64.459999)
(5.9681039 6.7365966 -64.459999)
(5.1125827 7.4068546 -64.459999)
(4.1825085 7.9691043 -64.459999)
(3.1914439 8.4151459 -64.459999)
(2.153841 8.7384768 -64.459999)
(1.0848302 8.9343796 -64.459999)
(-5.5109107e-16 9 -64.459999)
(-1.0848302 8.9343796 -64.459999)
(-2.153841 8.7384768 -64.459999)
(-3.1914439 8.4151459 -64.459999)
(-4.1825085 7.9691043 -64.459999)
(-5.1125827 7.4068546 -64.459999)
(-5.9681039 6.7365966 -64.459999)
(-6.7365966 5.9681039 -64.459999)
(-7.4068546 5.1125827 -64.459999)
(-7.9691043 4.1825085 -64.459999)
(-8.4151459 3.1914439 -64.459999)
(-8.7384768 2.153841 -64.459999)
(-8.9343796 1.0848302 -64.459999)
(-9 5.7731597e-14 -64.459999)
(-8.9343796 -1.0848302 -64.459999)
(-8.7384768 -2.153841 -64.459999)
(-8.4151459 -3.1914439 -64.459999)
(-7.9691043 -4.1825085 -64.459999)
(-7.4068546 -5.1125827 -64.459999)
(-6.7365966 -5.9681039 -64.459999)
(-5.9681039 -6.7365966 -64.459999)
(-5.1125827 -7.4068546 -64.459999)
(-4.1825085 -7.9691043 -64.459999)
(-3.1914439 -8.4151459 -64.459999)
(-2.153841 -8.7384768 -64.459999)
(-1.0848302 -8.9343796 -64.459999)
(-5.5109107e-16 -9 -64.459999)
(1.0848302 -8.9343796 -64.459999)
(2.153841 -8.7384768 -64.459999)
(3.1914439 -8.4151459 -64.459999)
(4.1825085 -7.9691043 -64.459999)
(5.1125827 -7.4068546 -64.459999)
(5.9681039 -6.7365966 -64.459999)
(6.7365966 -5.9681039 -64.459999)
(7.4068546 -5.1125827 -64.459999)
(7.9691043 -4.1825085 -64.459999)
(8.4151459 -3.1914439 -64.459999)
(8.7384768 -2.153841 -64.459999)
(26.919901 41.540638 -75.588783)
(27.185499 40.893818 -76.142204)
(27.355457 40.178619 -76.646996)
(27.426313 39.409611 -77.092873)
(27.396627 38.602436 -77.470741)
(26.314701 35.325348 -78.17231)
(27.267004 37.773537 -77.772942)
(27.040081 36.939781 -77.993294)
(26.720478 36.118141 -78.127327)
(26.564072 42.105919 -74.997993)
(26.12525 42.578148 -74.381844)
(25.612373 42.947716 -73.752892)
(24.900505 43.285255 -75.796059)
(25.339327 42.813026 -76.412193)
(25.695156 42.247746 -77.002998)
(25.960754 41.600925 -77.556419)
(26.130713 40.885727 -78.061211)
(26.201569 40.116714 -78.507072)
(26.171883 39.309544 -78.884956)
(26.042259 38.480644 -79.187157)
(25.815336 37.646889 -79.407509)
(25.495733 36.825249 -79.541542)
(25.089954 36.032455 -79.586525)
(17.876907 33.5341 -74.440514)
(17.803965 33.572884 -74.336723)
(17.730936 33.611507 -74.232918)
(17.584631 33.688282 -74.025322)
(16.028461 34.455875 -71.844994)
(15.953448 34.490673 -71.741096)
(15.878361 34.525307 -71.637199)
(15.123407 34.862617 -70.598259)
(22.515299 -44.083637 -75.588783)
(21.822336 -43.990242 -76.142204)
(21.117979 -43.779831 -76.646996)
(20.416567 -43.456688 -77.092873)
(19.732378 -43.027393 -77.470741)
(17.435299 -40.451874 -78.17231)
(19.07934 -42.500687 -77.772942)
(18.470747 -41.887287 -77.993294)
(17.918991 -41.199684 -78.127327)
(23.18276 -44.058121 -74.997993)
(23.811134 -43.914204 -74.381844)
(24.387627 -43.654823 -73.752892)
(25.035879 -43.2071 -75.796059)
(24.407505 -43.351013 -76.412193)
(23.740044 -43.376534 -77.002998)
(23.047081 -43.283134 -77.556419)
(22.342724 -43.072723 -78.061211)
(21.641312 -42.74958 -78.507072)
(20.957123 -42.320286 -78.884956)
(20.304085 -41.793579 -79.187157)
(19.695492 -41.18018 -79.407509)
(19.143736 -40.492577 -79.541542)
(18.660046 -39.744766 -79.586525)
(20.102928 -32.248905 -74.440514)
(20.172989 -32.205128 -74.336723)
(20.242952 -32.161198 -74.232918)
(20.382591 -32.072876 -74.025322)
(21.825434 -31.108992 -71.844994)
(21.893074 -31.061428 -71.741096)
(21.960611 -31.013716 -71.637199)
(22.630211 -30.528564 -70.598259)
(-50 0.70710677 -73.752892)
(-49.936382 1.3360554 -74.381844)
(-49.936382 -0.07815811 -75.796059)
(-49.74683 1.9522005 -74.997993)
(-49.74683 0.53798699 -76.412193)
(-49.4352 2.542999 -75.588783)
(-49.4352 1.1287855 -77.002998)
(-49.007835 3.0964241 -76.142204)
(-49.007835 1.6822107 -77.556419)
(-48.473434 3.6012096 -76.646996)
(-48.473434 2.1869962 -78.061211)
(-47.84288 2.6328659 -78.507072)
(-47.84288 4.0470796 -77.092873)
(-47.129005 4.4249573 -77.470741)
(-47.129005 3.0107436 -78.884956)
(-46.346344 4.7271504 -77.772942)
(-46.346344 3.3129368 -79.187157)
(-45.51083 4.9475069 -77.993294)
(-45.51083 3.5332932 -79.407509)
(-44.639469 5.0815411 -78.127327)
(-44.639469 3.6673274 -79.541542)
(-43.75 5.126524 -78.17231)
(-43.75 3.7123106 -79.586525)
(-37.979836 -1.2851938 -74.440514)
(-37.976952 -1.3677565 -74.336723)
(-37.973888 -1.4503126 -74.232918)
(-37.96722 -1.615404 -74.025322)
(-37.853893 -3.3468838 -71.844994)
(-37.846523 -3.4292445 -71.741096)
(-37.83897 -3.5115888 -71.637199)
(-37.753616 -4.3340545 -70.598259)
(-25.035879 -43.2071 76.876053)
(-24.407505 -43.351013 77.492203)
(-23.740044 -43.376534 78.083)
(-23.047081 -43.283134 78.636421)
(-22.342724 -43.072723 79.141212)
(-21.641312 -42.74958 79.587082)
(-20.957123 -42.320286 79.964958)
(-20.304085 -41.793579 80.267151)
(-19.695492 -41.18018 80.487511)
(-19.143736 -40.492577 80.621544)
(-11.007408 -14.758741 74.653221)
(-20.032776 -32.292534 75.624321)
(-20.102928 -32.248905 75.520523)
(-20.172989 -32.205128 75.416725)
(-20.242952 -32.161198 75.312927)
(-20.86828 -31.758997 74.378746)
(-20.937273 -31.713554 74.274948)
(-21.825434 -31.108992 72.924995)
(-21.893074 -31.061428 72.821098)
(-21.960611 -31.013716 72.717209)
(-22.028044 -30.965858 72.613312)
(-22.095373 -30.917852 72.509415)
(-22.630211 -30.528564 71.678261)
(-26.456459 -42.426788 73.917595)
(-27.882137 -41.503139 72.295189)
(-29.275558 -40.53157 70.672783)
(-30.529161 -39.603916 67.801643)
(-31.959734 -38.449612 67.427971)
(-33.24754 -37.341702 65.805565)
(-35.280247 -35.437328 64.528358)
(-35.707214 -34.998211 62.560757)
(-38.002693 -32.493126 59.315948)
(-39.085491 -31.183641 57.693542)
(-40.123234 -29.838221 56.071136)
(-42.058304 -27.045647 52.826328)
(-42.833508 -25.802916 52.809608)
(-42.952999 -25.601532 51.203922)
(-43.797375 -24.127558 49.581516)
(-44.530891 -22.748619 46.707893)
(-45.331047 -21.096632 46.336704)
(-46.019249 -19.543446 44.714302)
(-47.044376 -16.950716 43.434608)
(-47.819439 -14.621941 41.090858)
(-49.753201 -5.0118747 31.715858)
(-49.905453 -3.0849788 28.49025)
(-49.981739 -1.5250987 25.614143)
(-50.004463 0.30926865 25.245438)
(-49.966114 2.0067599 23.623032)
(-49.803776 4.4856362 21.249332)
(-42.95837 25.594095 -0.1139917)
(-41.634857 27.697212 -2.4876947)
(4.453691 49.805962 -53.718231)
(-49.479946 7.2273669 19.997108)
(-46.24099 19.033419 8.2783575)
(-40.230461 29.698654 -3.4403925)
(-31.808619 38.583828 -15.159142)
(-21.480249 45.156384 -26.877892)
(-9.8644075 49.022377 -38.596642)
(2.3426824 49.950092 -50.315392)
(7.3284044 49.464985 -56.483803)
(8.7571211 49.231319 -57.866585)
(11.591475 48.639675 -60.632156)
(12.042448 48.533283 -59.690392)
(15.767901 47.44754 -64.78051)
(17.135376 46.970551 -66.163292)
(18.488583 46.454437 -67.546074)
(19.826363 45.899605 -68.928856)
(22.450996 44.675423 -71.694435)
(23.735533 44.006889 -73.077217)
(-46.546219 -18.274288 42.020393)
(-34.264019 -36.420834 63.114143)
(-20.300598 -33.891312 73.210487)
(-24.178272 -30.278187 69.944801)
(-15.808998 34.55164 69.432892)
(-14.623288 35.069817 67.806297)
(-17.736536 33.602909 72.132896)
(-26.919901 41.540638 76.668785)
(-27.185499 40.893818 77.222214)
(-27.355457 40.178619 77.726997)
(-27.426313 39.409611 78.172867)
(-27.396627 38.602436 78.550743)
(-26.314701 35.325348 79.252312)
(-27.267004 37.773537 78.852936)
(-27.040081 36.939781 79.073296)
(-26.720478 36.118141 79.207329)
(-26.564072 42.105919 76.077988)
(-26.12525 42.578148 75.461845)
(-25.612373 42.947716 74.832893)
(-17.949768 33.495159 75.624321)
(-17.876907 33.5341 75.520523)
(-17.803965 33.572884 75.416725)
(-17.730936 33.611507 75.312927)
(-17.069958 33.951962 74.378746)
(-16.996107 33.988987 74.274948)
(-16.028461 34.455875 72.924995)
(-15.953448 34.490673 72.821098)
(-15.878361 34.525307 72.717209)
(-15.803198 34.559776 72.613312)
(-15.72796 34.594082 72.509415)
(-15.047513 34.895447 71.574371)
(-15.123407 34.862617 71.678261)
(-23.514446 44.125359 73.917595)
(-22.001705 44.898209 72.295189)
(-20.463591 45.619164 70.672783)
(-19.033419 46.24099 67.801643)
(-17.318476 46.902748 67.427971)
(-15.715094 47.464066 65.805565)
(-13.049504 48.272255 64.528358)
(-12.455732 48.422462 62.560757)
(-9.138525 49.15786 59.315948)
(-7.4630804 49.440845 57.693542)
(-5.7790399 49.666851 56.071136)
(-2.3930655 49.946384 52.826328)
(-0.92922598 49.996365 52.809608)
(-0.69507855 49.999153 51.203922)
(1.0036104 49.99342 49.581516)
(2.5645638 49.939194 46.707893)
(4.3953037 49.806152 46.336704)
(6.0845041 49.625561 44.714302)
(8.8424358 49.216984 43.434608)
(11.246748 48.72382 41.090858)
(20.53619 45.593475 31.715858)
(22.281057 44.761879 28.49025)
(23.670094 44.048004 25.614143)
(25.270065 43.150501 25.245438)
(26.720961 42.268543 23.623032)
(28.786562 40.888515 21.249332)
(43.644321 24.405994 -0.1139917)
(44.803917 22.208239 -2.4876947)
(40.906384 -28.759991 -53.718231)
(30.999058 39.237209 19.997108)
(39.603916 30.529161 8.2783575)
(45.835018 19.991274 -3.4403925)
(49.318886 8.2551584 -15.159142)
(49.846699 -3.9757493 -26.877892)
(47.386829 -15.968361 -38.596642)
(42.086708 -27.00387 -50.315392)
(39.173733 -31.079077 -56.483803)
(38.257011 -32.199551 -57.866585)
(36.327457 -34.358349 -60.632156)
(36.00983 -34.695705 -59.690392)
(33.206825 -37.379173 -64.78051)
(32.110004 -38.324947 -66.163292)
(30.986431 -39.2388 -67.546074)
(29.837042 -40.119934 -68.928856)
(27.464552 -41.780846 -71.694435)
(26.243317 -42.559017 -73.077217)
(7.4471116 49.44735 42.020393)
(-14.409358 47.883926 63.114143)
(-19.200439 34.526489 73.210487)