/*--------------------------------*- C++ -*----------------------------------*\
| =========                 |                                                 |
| \\      /  F ield         | OpenFOAM: The Open Source CFD Toolbox           |
|  \\    /   O peration     | Version:  2206                                  |
|   \\  /    A nd           | Website:  www.openfoam.com                      |
|    \\/     M anipulation  |                                                 |
\*---------------------------------------------------------------------------*/
FoamFile
{
    version     2.0;
    format      ascii;
    arch        "LSB;label=64;scalar=64";
    class       featureEdgeMesh;
    location    "constant/triSurface";
    object      GeoTank.eMesh;
}
// * * * * * * * * * * * * * * * * * * * * * * * * * * * * * * * * * * * * * //


// points:

104
(
(1.7223256 -16.111694 157.7926)
(0 -16.203491 157.7926)
(3.4251363 -15.837347 157.7926)
(5.089139 -15.383555 157.7926)
(6.6954799 -14.755463 157.7926)
(8.2259579 -13.960184 157.7926)
(9.6632328 -13.006731 157.7926)
(10.991019 -11.905907 157.7926)
(12.194274 -10.670183 157.7926)
(13.259361 -9.3135624 157.7926)
(14.174215 -7.8514156 157.7926)
(14.928471 -6.3003092 157.7926)
(15.513579 -4.6778173 157.7926)
(15.922914 -3.0023241 157.7926)
(16.151834 -1.2928134 157.7926)
(16.197748 0.43134537 157.7926)
(16.060137 2.1506169 157.7926)
(15.740556 3.845521 157.7926)
(15.242628 5.4968538 157.7926)
(14.571996 7.0859051 157.7926)
(13.736258 8.5946703 157.7926)
(12.744881 10.006055 157.7926)
(11.6091 11.304066 157.7926)
(10.341784 12.473998 157.7926)
(8.9572906 13.502595 157.7926)
(7.4713082 14.378201 157.7926)
(5.9006724 15.090898 157.7926)
(4.2631798 15.632607 157.7926)
(2.577384 15.997193 157.7926)
(0.86238503 16.180525 157.7926)
(-0.86238503 16.180525 157.7926)
(-2.577384 15.997193 157.7926)
(-4.2631798 15.632607 157.7926)
(-5.9006724 15.090898 157.7926)
(-7.4713082 14.378201 157.7926)
(-8.9572906 13.502595 157.7926)
(-10.341784 12.473998 157.7926)
(-11.6091 11.304066 157.7926)
(-12.744881 10.006055 157.7926)
(-13.736258 8.5946703 157.7926)
(-14.571996 7.0859051 157.7926)
(-15.242628 5.4968538 157.7926)
(-15.740556 3.845521 157.7926)
(-16.060137 2.1506169 157.7926)
(-16.197748 0.43134537 157.7926)
(-16.151834 -1.2928134 157.7926)
(-15.922914 -3.0023241 157.7926)
(-15.513579 -4.6778173 157.7926)
(-14.928471 -6.3003092 157.7926)
(-14.174215 -7.8514156 157.7926)
(-13.259361 -9.3135624 157.7926)
(-12.194274 -10.670183 157.7926)
(-10.991019 -11.905907 157.7926)
(-9.6632328 -13.006731 157.7926)
(-8.2259579 -13.960184 157.7926)
(-6.6954799 -14.755463 157.7926)
(-5.089139 -15.383555 157.7926)
(-3.4251363 -15.837347 157.7926)
(-1.7223256 -16.111694 157.7926)
(0 -9.3538332 -175.45874)
(-1.301802 -9.2628021 -175.45874)
(-0.65249044 9.331048 -175.45874)
(0.65249044 9.331048 -175.45874)
(1.301802 -9.2628021 -175.45874)
(1.9447713 9.1494293 -175.45874)
(2.5782659 -8.9914818 -175.45874)
(3.1991994 8.7897282 -175.45874)
(3.8045468 -8.5451517 -175.45874)
(4.3913589 8.2589445 -175.45874)
(4.9567766 -7.9325004 -175.45874)
(5.4980454 7.56741 -175.45874)
(6.0125284 -7.165452 -175.45874)
(6.4977188 6.7285848 -175.45874)
(6.9512529 -6.2589364 -175.45874)
(7.3709211 5.7587948 -175.45874)
(7.7546792 -5.230597 -175.45874)
(8.1006575 4.6769166 -175.45874)
(8.4071693 -4.1004505 -175.45874)
(8.6727228 3.5040076 -175.45874)
(8.8960238 -2.8904934 -175.45874)
(9.075985 2.262897 -175.45874)
(9.2117281 -1.6242762 -175.45874)
(9.3025923 0.97774184 -175.45874)
(9.348135 -0.32644409 -175.45874)
(-1.9447713 9.1494293 -175.45874)
(-2.5782659 -8.9914818 -175.45874)
(-3.1991994 8.7897282 -175.45874)
(-3.8045468 -8.5451517 -175.45874)
(-4.3913589 8.2589445 -175.45874)
(-4.9567766 -7.9325004 -175.45874)
(-5.4980454 7.56741 -175.45874)
(-6.0125284 -7.165452 -175.45874)
(-6.4977188 6.7285848 -175.45874)
(-6.9512529 -6.2589364 -175.45874)
(-7.3709211 5.7587948 -175.45874)
(-7.7546792 -5.230597 -175.45874)
(-8.1006575 4.6769166 -175.45874)
(-8.4071693 -4.1004505 -175.45874)
(-8.6727228 3.5040076 -175.45874)
(-8.8960238 -2.8904934 -175.45874)
(-9.075985 2.262897 -175.45874)
(-9.2117281 -1.6242762 -175.45874)
(-9.3025923 0.97774184 -175.45874)
(-9.348135 -0.32644409 -175.45874)
)


// edges:

104
(
(0 1)
(2 0)
(3 2)
(4 3)
(5 4)
(6 5)
(7 6)
(8 7)
(9 8)
(10 9)
(11 10)
(12 11)
(13 12)
(14 13)
(15 14)
(16 15)
(17 16)
(18 17)
(19 18)
(20 19)
(21 20)
(22 21)
(23 22)
(24 23)
(25 24)
(26 25)
(27 26)
(28 27)
(29 28)
(30 29)
(31 30)
(32 31)
(33 32)
(34 33)
(35 34)
(36 35)
(37 36)
(38 37)
(39 38)
(40 39)
(41 40)
(42 41)
(43 42)
(44 43)
(45 44)
(46 45)
(47 46)
(48 47)
(49 48)
(50 49)
(51 50)
(52 51)
(53 52)
(54 53)
(55 54)
(56 55)
(57 56)
(58 57)
(1 58)
(59 60)
(61 62)
(63 59)
(62 64)
(65 63)
(64 66)
(67 65)
(66 68)
(69 67)
(68 70)
(71 69)
(70 72)
(73 71)
(72 74)
(75 73)
(74 76)
(77 75)
(76 78)
(79 77)
(78 80)
(81 79)
(80 82)
(83 81)
(82 83)
(84 61)
(60 85)
(86 84)
(85 87)
(88 86)
(87 89)
(90 88)
(89 91)
(92 90)
(91 93)
(94 92)
(93 95)
(96 94)
(95 97)
(98 96)
(97 99)
(100 98)
(99 101)
(102 100)
(103 102)
(101 103)
)

// * * * * * * * * * * * * * * * * * * * * * * * * * * * * * * * * * * * * * //


// ************************************************************************* //
