/*--------------------------------*- C++ -*----------------------------------*\
| =========                 |                                                 |
| \\      /  F ield         | OpenFOAM: The Open Source CFD Toolbox           |
|  \\    /   O peration     | Version:  2206                                  |
|   \\  /    A nd           | Website:  www.openfoam.com                      |
|    \\/     M anipulation  |                                                 |
\*---------------------------------------------------------------------------*/
FoamFile
{
    version     2.0;
    format      ascii;
    arch        "LSB;label=64;scalar=64";
    class       featureEdgeMesh;
    location    "constant/triSurface";
    object      GeoTank.eMesh;
}
// * * * * * * * * * * * * * * * * * * * * * * * * * * * * * * * * * * * * * //


// points:

8697
(
(0 -39.9319 141.178)
(29.8551 26.5186 141.178)
(-39.6532 4.71024 141.178)
(-39.8807 2.02252 141.178)
(-5.37929 -39.568 141.178)
(-8.03824 -39.1145 141.178)
(-13.2341 -37.6752 141.178)
(-18.1888 -35.549 141.178)
(-20.5472 -34.2399 141.178)
(-22.8119 -32.7747 141.178)
(-24.9724 -31.1599 141.178)
(-27.019 -29.4029 141.178)
(-28.9424 -27.5118 141.178)
(-30.7337 -25.4951 141.178)
(-32.3847 -23.3621 141.178)
(-33.888 -21.1226 141.178)
(-35.2367 -18.7866 141.178)
(-36.4246 -16.3649 141.178)
(-37.4463 -13.8686 141.178)
(-38.2971 -11.3089 141.178)
(-38.9732 -8.69772 141.178)
(-39.4715 -6.04681 141.178)
(-39.7896 -3.3683 141.178)
(-39.9263 -0.67443 141.178)
(-39.2447 7.37647 141.178)
(-37.8933 12.5959 141.178)
(-36.9565 15.1254 141.178)
(-34.5821 19.966 141.178)
(-31.5772 24.4426 141.178)
(-29.8551 26.5186 141.178)
(-26.0106 30.2987 141.178)
(-23.9058 31.9855 141.178)
(-21.6919 33.5264 141.178)
(-19.3791 34.9144 141.178)
(-16.9778 36.143 141.178)
(-14.499 37.2067 141.178)
(-11.9542 38.1006 141.178)
(-9.35472 38.8207 141.178)
(-6.7126 39.3637 141.178)
(-4.03985 39.7271 141.178)
(1.34867 39.9092 141.178)
(4.03985 39.7271 141.178)
(6.7126 39.3637 141.178)
(9.35472 38.8207 141.178)
(11.9542 38.1006 141.178)
(14.499 37.2067 141.178)
(16.9778 36.143 141.178)
(19.3791 34.9144 141.178)
(21.6919 33.5264 141.178)
(23.9058 31.9855 141.178)
(26.0106 30.2987 141.178)
(31.5772 24.4426 141.178)
(34.5821 19.966 141.178)
(36.9565 15.1254 141.178)
(37.8933 12.5959 141.178)
(39.2447 7.37647 141.178)
(39.6532 4.71024 141.178)
(39.8807 2.02252 141.178)
(39.9263 -0.67443 141.178)
(39.7896 -3.3683 141.178)
(39.4715 -6.04681 141.178)
(38.9732 -8.69772 141.178)
(38.2971 -11.3089 141.178)
(37.4463 -13.8686 141.178)
(36.4246 -16.3649 141.178)
(35.2367 -18.7866 141.178)
(33.888 -21.1226 141.178)
(32.3847 -23.3621 141.178)
(30.7337 -25.4951 141.178)
(28.9424 -27.5118 141.178)
(27.019 -29.4029 141.178)
(24.9724 -31.1599 141.178)
(22.8119 -32.7747 141.178)
(20.5472 -34.2399 141.178)
(18.1888 -35.549 141.178)
(13.2341 -37.6752 141.178)
(8.03824 -39.1145 141.178)
(5.37929 -39.568 141.178)
(16.1977 0.431345 157.793)
(-16.1977 0.431345 157.793)
(9.34813 -0.326444 -175.459)
(-9.34813 -0.326444 -175.459)
(0 -62.9454 -121.867)
(3.4078 -62.8531 -121.867)
(2.63021 -65.2679 -119.445)
(0 -65.3208 -119.445)
(-2.63021 -65.2679 -119.445)
(0 -69.1461 -115.334)
(-2.78423 -69.09 -115.334)
(0 -72.8354 -111.1)
(-2.93279 -72.7764 -111.1)
(0 -76.3849 -106.749)
(-3.07571 -76.3229 -106.749)
(0 -79.7907 -102.284)
(-3.21285 -79.726 -102.284)
(0 -83.0493 -97.711)
(-3.34406 -82.9819 -97.711)
(0 -86.1571 -93.0341)
(-3.4692 -86.0872 -93.0341)
(0 -89.1109 -88.2583)
(-3.58814 -89.0387 -88.2583)
(0 -91.9076 -83.3889)
(-3.70075 -91.8331 -83.3889)
(0 -94.5442 -78.431)
(-3.80691 -94.4675 -78.431)
(0 -97.0178 -73.3898)
(-3.90651 -96.9391 -73.3898)
(0 -99.3259 -68.2707)
(-3.99945 -99.2454 -68.2707)
(0 -101.466 -63.0791)
(-4.08562 -101.384 -63.0791)
(0 -103.436 -57.8206)
(-4.16494 -103.352 -57.8206)
(0 -105.233 -52.5006)
(-4.23732 -105.148 -52.5006)
(0 -106.857 -47.125)
(-4.30268 -106.77 -47.125)
(0 -108.304 -41.6993)
(-4.36095 -108.216 -41.6993)
(0 -109.573 -36.2293)
(-4.41208 -109.485 -36.2293)
(0 -110.664 -30.7209)
(-4.456 -110.575 -30.7209)
(0 -111.575 -25.1799)
(-4.49268 -111.485 -25.1799)
(0 -112.305 -19.6121)
(-4.52206 -112.214 -19.6121)
(0 -112.853 -14.0236)
(-4.54413 -112.761 -14.0236)
(0 -113.219 -8.4201)
(-4.55885 -113.127 -8.4201)
(0 -113.402 -2.80769)
(-4.56622 -113.31 -2.80769)
(0 -113.402 2.80769)
(-4.56622 -113.31 2.80769)
(0 -113.219 8.4201)
(-4.55885 -113.127 8.4201)
(0 -112.853 14.0236)
(-4.54413 -112.761 14.0236)
(0 -112.305 19.6121)
(-4.52206 -112.214 19.6121)
(0 -111.575 25.1799)
(-4.49268 -111.485 25.1799)
(0 -110.664 30.7209)
(-4.456 -110.575 30.7209)
(0 -109.573 36.2293)
(-4.41208 -109.485 36.2293)
(0 -108.304 41.6993)
(-4.36095 -108.216 41.6993)
(0 -106.857 47.125)
(-4.30268 -106.77 47.125)
(0 -105.233 52.5006)
(-4.23732 -105.148 52.5006)
(0 -103.436 57.8206)
(-4.16494 -103.352 57.8206)
(0 -101.466 63.0791)
(-4.08562 -101.384 63.0791)
(0 -99.3259 68.2707)
(-3.99945 -99.2454 68.2707)
(0 -97.0178 73.3898)
(-3.90651 -96.9391 73.3898)
(0 -94.5442 78.431)
(-3.80691 -94.4675 78.431)
(0 -91.9076 83.3889)
(-3.70075 -91.8331 83.3889)
(0 -89.1109 88.2583)
(-3.58814 -89.0387 88.2583)
(0 -86.1571 93.0341)
(-3.4692 -86.0872 93.0341)
(0 -83.0493 97.711)
(-3.34406 -82.9819 97.711)
(0 -79.7907 102.284)
(-3.21285 -79.726 102.284)
(0 -76.3849 106.749)
(-3.07571 -76.3229 106.749)
(0 -72.8354 111.1)
(-2.93279 -72.7764 111.1)
(0 -69.1461 115.334)
(-2.78423 -69.09 115.334)
(0 -65.3208 119.445)
(-2.63021 -65.2679 119.445)
(0 -61.3637 123.429)
(-2.47087 -61.3139 123.429)
(0 -57.2788 127.282)
(-2.30639 -57.2324 127.282)
(0 -53.0706 131)
(-2.13694 -53.0275 131)
(0 -48.7435 134.579)
(-1.9627 -48.7039 134.579)
(0 -44.3021 138.015)
(-1.78386 -44.2661 138.015)
(-2.6958 -39.8408 141.178)
(5.25614 -65.109 -119.445)
(6.80559 -62.5764 -121.867)
(7.87356 -64.8446 -119.445)
(10.1834 -62.1162 -121.867)
(10.4782 -64.475 -119.445)
(13.0658 -64.0008 -119.445)
(13.831 -67.7487 -115.334)
(16.5478 -67.1369 -115.334)
(17.4307 -70.719 -111.1)
(20.2641 -69.9598 -111.1)
(21.2516 -73.3691 -106.749)
(24.1887 -72.4539 -106.749)
(25.2672 -75.6844 -102.284)
(28.2942 -74.6056 -102.284)
(29.4497 -77.6524 -97.711)
(32.5525 -76.4036 -97.711)
(33.7707 -79.2628 -93.0341)
(36.9349 -77.8387 -93.0341)
(38.2012 -80.5073 -88.2583)
(41.4119 -78.9038 -88.2583)
(42.7116 -81.3801 -83.3889)
(45.9538 -79.5943 -83.3889)
(47.2721 -81.8776 -78.431)
(50.5306 -79.9078 -78.431)
(51.8527 -81.9985 -73.3898)
(55.1124 -79.8441 -73.3898)
(56.4235 -81.7436 -68.2707)
(59.6693 -79.4054 -68.2707)
(60.9549 -81.1163 -63.0791)
(64.1717 -78.5961 -63.0791)
(65.4175 -80.1219 -57.8206)
(68.5907 -77.4228 -57.8206)
(69.7826 -78.7683 -52.5006)
(72.8977 -75.8945 -52.5006)
(74.0221 -77.0652 -47.125)
(77.0652 -74.0221 -47.125)
(78.1089 -75.0247 -41.6993)
(81.0665 -71.8187 -41.6993)
(82.0169 -72.6607 -36.2293)
(84.8762 -69.2992 -36.2293)
(85.7211 -69.9891 -30.7209)
(88.4698 -66.4807 -30.7209)
(89.1979 -67.0279 -25.1799)
(91.8245 -63.3819 -25.1799)
(92.4251 -63.7965 -19.6121)
(94.919 -60.0231 -19.6121)
(95.3822 -60.316 -14.0236)
(97.7335 -56.4265 -14.0236)
(98.0502 -56.6093 -8.4201)
(100.25 -52.6153 -8.4201)
(100.412 -52.7003 -2.80769)
(102.453 -48.6144 -2.80769)
(102.453 -48.6144 2.80769)
(104.327 -44.4496 2.80769)
(104.159 -44.3779 8.4201)
(105.861 -40.1479 8.4201)
(105.519 -40.0182 14.0236)
(107.045 -35.7369 14.0236)
(106.525 -35.5634 19.6121)
(107.871 -31.2452 19.6121)
(107.17 -31.0421 25.1799)
(108.333 -26.7017 25.1799)
(107.449 -26.4837 30.7209)
(108.428 -22.1357 30.7209)
(107.359 -21.9175 36.2293)
(108.155 -17.5768 36.2293)
(106.901 -17.3731 41.6993)
(107.514 -13.0546 41.6993)
(106.077 -12.8801 47.125)
(106.51 -8.59838 47.125)
(104.892 -8.46776 52.5006)
(105.148 -4.23732 52.5006)
(103.352 -4.16494 57.8206)
(103.436 -3.20111e-14 57.8206)
(101.466 -3.42258e-14 63.0791)
(101.384 4.08562 63.0791)
(99.2454 3.99945 68.2707)
(99.0038 7.99241 68.2707)
(96.7032 7.80669 73.3898)
(96.3104 11.6942 73.3898)
(93.8548 11.396 78.431)
(93.3198 15.166 78.431)
(90.7174 14.743 83.3889)
(90.0502 18.3839 83.3889)
(87.3101 17.8245 88.2583)
(86.5215 21.3256 88.2583)
(83.6535 20.6187 93.0341)
(82.7555 23.9704 93.0341)
(79.7703 23.1058 97.711)
(78.7753 26.299 97.711)
(75.6844 25.2672 102.284)
(74.6056 28.2942 102.284)
(71.4211 27.0865 106.749)
(70.2725 29.9403 106.749)
(67.0071 28.5491 111.1)
(65.8032 31.224 111.1)
(62.4701 29.6424 115.334)
(61.2259 32.1338 115.334)
(57.8387 30.3561 119.445)
(56.5695 32.6604 119.445)
(53.1425 30.6818 123.429)
(51.864 32.7968 123.429)
(48.4115 30.6136 127.282)
(47.1395 32.5381 127.282)
(43.6762 30.1475 131)
(42.4269 31.8817 131)
(38.9676 29.2823 134.579)
(37.7569 30.8276 134.579)
(34.3166 28.0186 138.015)
(33.1606 29.3777 138.015)
(31.9508 30.6891 138.015)
(27.9967 28.4736 141.178)
(30.6891 31.9508 138.015)
(29.3777 33.1606 138.015)
(33.7658 35.1539 134.579)
(32.3229 36.485 134.579)
(36.7633 38.2746 131)
(35.1923 39.7239 131)
(39.6784 41.3096 127.282)
(37.9829 42.8738 127.282)
(42.5081 44.2556 123.429)
(40.6916 45.9314 123.429)
(45.2493 47.1096 119.445)
(43.3157 48.8934 119.445)
(47.8992 49.8684 115.334)
(45.8524 51.7566 115.334)
(50.4549 52.5291 111.1)
(48.2988 54.5181 111.1)
(52.9137 55.089 106.749)
(50.6526 57.1749 106.749)
(55.273 57.5453 102.284)
(52.911 59.7242 102.284)
(57.5302 59.8953 97.711)
(55.0718 62.1633 97.711)
(59.6831 62.1367 93.0341)
(57.1327 64.4895 93.0341)
(61.7293 64.267 88.2583)
(59.0915 66.7005 88.2583)
(63.6666 66.284 83.3889)
(60.946 68.7938 83.3889)
(65.493 68.1855 78.431)
(62.6944 70.7673 78.431)
(67.2066 69.9695 73.3898)
(64.3347 72.6189 73.3898)
(68.8055 71.6341 68.2707)
(65.8653 74.3465 68.2707)
(70.288 73.1775 63.0791)
(67.2844 75.9484 63.0791)
(71.6525 74.5982 57.8206)
(68.5907 77.4228 57.8206)
(72.8977 75.8945 52.5006)
(69.7826 78.7683 52.5006)
(74.0221 77.0652 47.125)
(70.859 79.9833 47.125)
(75.0247 78.1089 41.6993)
(71.8187 81.0665 41.6993)
(75.9042 79.0247 36.2293)
(72.6607 82.0169 36.2293)
(76.6599 79.8114 30.7209)
(73.384 82.8334 30.7209)
(77.2908 80.4682 25.1799)
(73.988 83.5152 25.1799)
(77.7963 80.9946 19.6121)
(74.4719 84.0614 19.6121)
(78.176 81.3898 14.0236)
(74.8354 84.4716 14.0236)
(78.4293 81.6535 8.4201)
(75.0778 84.7454 8.4201)
(78.556 81.7855 2.80769)
(75.1992 84.8823 2.80769)
(78.556 81.7855 -2.80769)
(75.1992 84.8823 -2.80769)
(78.4293 81.6535 -8.4201)
(75.0778 84.7454 -8.4201)
(78.176 81.3898 -14.0236)
(74.8354 84.4716 -14.0236)
(77.7963 80.9946 -19.6121)
(74.4719 84.0614 -19.6121)
(77.2908 80.4682 -25.1799)
(73.988 83.5152 -25.1799)
(76.6599 79.8114 -30.7209)
(73.384 82.8334 -30.7209)
(75.9042 79.0247 -36.2293)
(72.6607 82.0169 -36.2293)
(75.0247 78.1089 -41.6993)
(71.8187 81.0665 -41.6993)
(74.0221 77.0652 -47.125)
(70.859 79.9833 -47.125)
(72.8977 75.8945 -52.5006)
(69.7826 78.7683 -52.5006)
(71.6525 74.5982 -57.8206)
(68.5907 77.4228 -57.8206)
(70.288 73.1775 -63.0791)
(67.2844 75.9484 -63.0791)
(68.8055 71.6341 -68.2707)
(65.8653 74.3465 -68.2707)
(67.2066 69.9695 -73.3898)
(64.3347 72.6189 -73.3898)
(65.493 68.1855 -78.431)
(62.6944 70.7673 -78.431)
(63.6666 66.284 -83.3889)
(60.946 68.7938 -83.3889)
(61.7293 64.267 -88.2583)
(59.0915 66.7005 -88.2583)
(59.6831 62.1367 -93.0341)
(57.1327 64.4895 -93.0341)
(57.5302 59.8953 -97.711)
(55.0718 62.1633 -97.711)
(55.273 57.5453 -102.284)
(52.911 59.7242 -102.284)
(52.9137 55.089 -106.749)
(50.6526 57.1749 -106.749)
(50.4549 52.5291 -111.1)
(48.2988 54.5181 -111.1)
(47.8992 49.8684 -115.334)
(45.8524 51.7566 -115.334)
(45.2493 47.1096 -119.445)
(43.3157 48.8934 -119.445)
(43.2875 45.6981 -121.867)
(40.75 47.9746 -121.867)
(13.5314 -61.4738 -121.867)
(15.6323 -63.4227 -119.445)
(19.2377 -66.4161 -115.334)
(23.0647 -69.0871 -111.1)
(27.0865 -71.4211 -106.749)
(31.2753 -73.4058 -102.284)
(35.6026 -75.0309 -97.711)
(40.0392 -76.2883 -93.0341)
(44.5555 -77.1723 -88.2583)
(49.1215 -77.6794 -83.3889)
(53.7072 -77.8083 -78.431)
(58.2827 -77.5602 -73.3898)
(62.8182 -76.9383 -68.2707)
(67.2844 -75.9484 -63.0791)
(71.6525 -74.5982 -57.8206)
(75.8945 -72.8977 -52.5006)
(79.9833 -70.859 -47.125)
(83.8926 -68.4962 -41.6993)
(87.5977 -65.8254 -36.2293)
(91.0749 -62.8645 -30.7209)
(94.3022 -59.6331 -25.1799)
(97.2589 -56.1525 -19.6121)
(99.9263 -52.4454 -14.0236)
(102.287 -48.536 -8.4201)
(104.327 -44.4496 -2.80769)
(106.032 -40.2127 2.80769)
(107.392 -35.8527 8.4201)
(108.397 -31.3977 14.0236)
(109.042 -26.8763 19.6121)
(109.32 -22.3179 25.1799)
(109.231 -17.7518 30.7209)
(108.775 -13.2076 36.2293)
(107.953 -8.71483 41.6993)
(106.77 -4.30268 47.125)
(105.233 -2.97587e-14 52.5006)
(103.352 4.16494 57.8206)
(101.137 8.16462 63.0791)
(98.6017 11.9724 68.2707)
(95.7615 15.5628 73.3898)
(92.6335 18.9113 78.431)
(89.2369 21.9949 83.3889)
(85.5927 24.7922 88.2583)
(81.7232 27.2832 93.0341)
(77.6524 29.4497 97.711)
(73.4058 31.2753 102.284)
(69.01 32.7456 106.749)
(64.4926 33.8483 111.1)
(59.8823 34.5731 115.334)
(55.2085 34.9118 119.445)
(50.5013 34.8585 123.429)
(45.7911 34.4098 127.282)
(41.1087 33.5642 131)
(36.485 32.3229 134.579)
(16.8397 -60.651 -121.867)
(18.1734 -62.7419 -119.445)
(21.8964 -65.5876 -115.334)
(25.8278 -68.1023 -111.1)
(29.9403 -70.2725 -106.749)
(34.2057 -72.087 -102.284)
(38.5949 -73.5365 -97.711)
(43.0786 -74.6142 -93.0341)
(47.6267 -75.3157 -88.2583)
(52.2095 -75.6385 -83.3889)
(56.7967 -75.5826 -78.431)
(61.3585 -75.1505 -73.3898)
(65.8653 -74.3465 -68.2707)
(70.288 -73.1775 -63.0791)
(74.5982 -71.6525 -57.8206)
(78.7683 -69.7826 -52.5006)
(82.7716 -67.5809 -47.125)
(86.5827 -65.0627 -41.6993)
(90.1772 -62.2448 -36.2293)
(93.5324 -59.1463 -30.7209)
(96.6269 -55.7876 -25.1799)
(99.4411 -52.1907 -19.6121)
(101.957 -48.3792 -14.0236)
(104.159 -44.3779 -8.4201)
(106.032 -40.2127 -2.80769)
(107.566 -35.9106 2.80769)
(108.749 -31.4994 8.4201)
(109.574 -27.0075 14.0236)
(110.035 -22.4639 19.6121)
(110.13 -17.8979 25.1799)
(109.857 -13.3391 30.7209)
(109.218 -8.817 36.2293)
(108.216 -4.36095 41.6993)
(106.857 -2.74708e-14 47.125)
(105.148 4.23732 52.5006)
(103.1 8.32313 57.8206)
(100.726 12.2304 63.0791)
(98.0397 15.933 68.2707)
(95.0571 19.4061 73.3898)
(91.7969 22.6259 78.431)
(88.2789 25.5703 83.3889)
(84.525 28.2186 88.2583)
(80.5583 30.5517 93.0341)
(76.4036 32.5525 97.711)
(72.087 34.2057 102.284)
(67.6355 35.4978 106.749)
(63.0773 36.4177 111.1)
(58.4416 36.9562 115.334)
(53.758 37.1065 119.445)
(49.0567 36.8638 123.429)
(44.3685 36.2257 127.282)
(39.7239 35.1923 131)
(35.1539 33.7658 134.579)
(20.0986 -59.6504 -121.867)
(20.685 -61.9592 -119.445)
(24.5196 -64.6527 -115.334)
(28.5491 -67.0071 -111.1)
(32.7456 -69.01 -106.749)
(37.0806 -70.6512 -102.284)
(41.5246 -71.9228 -97.711)
(46.048 -72.8191 -93.0341)
(50.6208 -73.3369 -88.2583)
(55.2128 -73.4749 -83.3889)
(59.794 -73.2344 -78.431)
(64.3347 -72.6189 -73.3898)
(68.8055 -71.6341 -68.2707)
(73.1775 -70.288 -63.0791)
(77.4228 -68.5907 -57.8206)
(81.5143 -66.5543 -52.5006)
(85.4257 -64.1932 -47.125)
(89.1323 -61.5236 -41.6993)
(92.6104 -58.5633 -36.2293)
(95.8381 -55.3322 -30.7209)
(98.7949 -51.8515 -25.1799)
(101.462 -48.1443 -19.6121)
(103.822 -44.2346 -14.0236)
(105.861 -40.1479 -8.4201)
(107.566 -35.9106 -2.80769)
(108.924 -31.5503 2.80769)
(109.929 -27.095 8.4201)
(110.572 -22.5735 14.0236)
(110.851 -18.015 19.6121)
(110.762 -13.4489 25.1799)
(110.305 -8.90478 30.7209)
(109.485 -4.41208 36.2293)
(108.304 -2.51499e-14 41.6993)
(106.77 4.30268 47.125)
(104.892 8.46776 52.5006)
(102.682 12.4678 57.8206)
(100.152 16.2763 63.0791)
(97.3186 19.8677 68.2707)
(94.1986 23.2179 73.3898)
(90.8114 26.3038 78.431)
(87.1777 29.1042 83.3889)
(83.3202 31.5992 88.2583)
(79.2628 33.7707 93.0341)
(75.0309 35.6026 97.711)
(70.6512 37.0806 102.284)
(66.1513 38.1924 106.749)
(61.5598 38.9281 111.1)
(56.9061 39.2795 115.334)
(52.2203 39.241 119.445)
(47.5326 38.8092 123.429)
(42.8738 37.9829 127.282)
(38.2746 36.7633 131)
(23.1631 -61.076 -119.445)
(23.2985 -58.4748 -121.867)
(25.6036 -60.0938 -119.445)
(26.4301 -57.1277 -121.867)
(28.0026 -59.0141 -119.445)
(29.4842 -55.613 -121.867)
(30.3561 -57.8387 -119.445)
(32.6604 -56.5695 -119.445)
(34.5731 -59.8823 -115.334)
(36.9562 -58.4416 -115.334)
(38.9281 -61.5598 -111.1)
(41.3752 -59.9424 -111.1)
(43.3916 -62.8635 -106.749)
(45.8876 -61.0654 -106.749)
(47.9337 -63.7881 -102.284)
(50.4633 -61.8063 -102.284)
(52.5241 -64.3304 -97.711)
(55.0718 -62.1633 -97.711)
(57.1327 -64.4895 -93.0341)
(59.6831 -62.1367 -93.0341)
(61.7293 -64.267 -88.2583)
(64.267 -61.7293 -88.2583)
(66.284 -63.6666 -83.3889)
(68.7938 -60.946 -83.3889)
(70.7673 -62.6944 -78.431)
(73.2344 -59.794 -78.431)
(75.1505 -61.3585 -73.3898)
(77.5602 -58.2827 -73.3898)
(79.4054 -59.6693 -68.2707)
(81.7436 -56.4235 -68.2707)
(83.5049 -57.6393 -63.0791)
(85.7581 -54.2301 -63.0791)
(87.423 -55.2829 -57.8206)
(89.5781 -51.7179 -57.8206)
(91.1347 -52.6167 -52.5006)
(93.1795 -48.9044 -52.5006)
(94.6168 -49.6587 -47.125)
(96.5396 -45.8086 -47.125)
(97.8471 -46.429 -41.6993)
(99.6372 -42.4515 -41.6993)
(100.805 -42.9491 -36.2293)
(102.453 -38.8553 -36.2293)
(103.473 -39.2421 -30.7209)
(104.969 -35.0438 -30.7209)
(105.833 -35.3323 -25.1799)
(107.17 -31.0421 -25.1799)
(107.871 -31.2452 -19.6121)
(109.042 -26.8763 -19.6121)
(109.574 -27.0075 -14.0236)
(110.572 -22.5735 -14.0236)
(110.931 -22.6466 -8.4201)
(111.752 -18.1615 -8.4201)
(111.933 -18.1909 -2.80769)
(112.575 -13.669 -2.80769)
(112.575 -13.669 2.80769)
(113.034 -9.12503 2.80769)
(112.851 -9.11031 8.4201)
(113.127 -4.55885 8.4201)
(112.761 -4.54413 14.0236)
(112.853 -1.3138e-14 14.0236)
(112.305 -1.55862e-14 19.6121)
(112.214 4.52206 19.6121)
(111.485 4.49268 25.1799)
(111.213 8.97807 25.1799)
(110.305 8.90478 30.7209)
(109.857 13.3391 30.7209)
(108.775 13.2076 36.2293)
(108.155 17.5768 36.2293)
(106.901 17.3731 41.6993)
(106.115 21.6635 41.6993)
(104.697 21.3741 47.125)
(103.751 25.5724 47.125)
(102.175 25.184 52.5006)
(101.079 29.2778 52.5006)
(99.352 28.7777 57.8206)
(98.1127 32.7548 57.8206)
(96.2442 32.131 63.0791)
(94.8724 35.9803 63.0791)
(92.8713 35.2215 68.2707)
(91.3778 38.9324 68.2707)
(89.2544 38.0277 73.3898)
(87.6508 41.5908 73.3898)
(85.416 40.5304 78.431)
(83.7147 43.9369 78.431)
(81.3801 42.7116 83.3889)
(79.5943 45.9538 83.3889)
(77.1723 44.5555 88.2583)
(75.3157 47.6267 88.2583)
(72.8191 46.048 93.0341)
(70.9059 48.9428 93.0341)
(68.3482 47.1774 97.711)
(66.3931 49.8912 97.711)
(63.7881 47.9337 102.284)
(61.8063 50.4633 102.284)
(59.1681 48.3093 106.749)
(57.1749 50.6526 106.749)
(54.5181 48.2988 111.1)
(52.5291 50.4549 111.1)
(49.8684 47.8992 115.334)
(32.4517 -53.9352 -121.867)
(34.9118 -55.2085 -119.445)
(39.2795 -56.9061 -115.334)
(43.7553 -58.2278 -111.1)
(48.3093 -59.1681 -106.749)
(52.911 -59.7242 -102.284)
(57.5302 -59.8953 -97.711)
(62.1367 -59.6831 -93.0341)
(66.7005 -59.0915 -88.2583)
(71.1921 -58.1265 -83.3889)
(75.5826 -56.7967 -78.431)
(79.8441 -55.1124 -73.3898)
(83.9493 -53.0863 -68.2707)
(87.8721 -50.733 -63.0791)
(91.5879 -48.069 -57.8206)
(95.0731 -45.1127 -52.5006)
(98.3058 -41.8842 -47.125)
(101.266 -38.405 -41.6993)
(103.934 -34.6984 -36.2293)
(106.295 -30.7887 -30.7209)
(108.333 -26.7017 -25.1799)
(110.035 -22.4639 -19.6121)
(111.392 -18.1029 -14.0236)
(112.393 -13.647 -8.4201)
(113.034 -9.12503 -2.80769)
(113.31 -4.56622 2.80769)
(113.219 -1.06719e-14 8.4201)
(112.761 4.54413 14.0236)
(111.941 9.03679 19.6121)
(110.762 13.4489 25.1799)
(109.231 17.7518 30.7209)
(107.359 21.9175 36.2293)
(105.157 25.9188 41.6993)
(102.638 29.7294 47.125)
(99.8176 33.324 52.5006)
(96.7142 36.6789 57.8206)
(93.3466 39.7713 63.0791)
(89.736 42.5803 68.2707)
(85.905 45.0864 73.3898)
(81.8776 47.2721 78.431)
(77.6794 49.1215 83.3889)
(73.3369 50.6208 88.2583)
(68.8777 51.7582 93.0341)
(64.3304 52.5241 97.711)
(59.7242 52.911 102.284)
(55.089 52.9137 106.749)
(35.3241 -52.0992 -121.867)
(37.1065 -53.758 -119.445)
(41.539 -55.2784 -115.334)
(46.0644 -56.4187 -111.1)
(50.6526 -57.1749 -106.749)
(55.273 -57.5453 -102.284)
(59.8953 -57.5302 -97.711)
(64.4895 -57.1327 -93.0341)
(69.0258 -56.3578 -88.2583)
(73.4749 -55.2128 -83.3889)
(77.8083 -53.7072 -78.431)
(81.9985 -51.8527 -73.3898)
(86.0188 -49.663 -68.2707)
(89.8437 -47.1536 -63.0791)
(93.4492 -44.3422 -57.8206)
(96.8125 -41.248 -52.5006)
(99.9126 -37.8919 -47.125)
(102.73 -34.2963 -41.6993)
(105.247 -30.4853 -36.2293)
(107.449 -26.4837 -30.7209)
(109.32 -22.3179 -25.1799)
(110.851 -18.015 -19.6121)
(112.03 -13.6029 -14.0236)
(112.851 -9.11031 -8.4201)
(113.31 -4.56622 -2.80769)
(113.402 -8.19071e-15 2.80769)
(113.127 4.55885 8.4201)
(112.487 9.08089 14.0236)
(111.486 13.5369 19.6121)
(110.13 17.8979 25.1799)
(108.428 22.1357 30.7209)
(106.389 26.2227 36.2293)
(104.028 30.132 41.6993)
(101.357 33.838 47.125)
(98.3949 37.3163 52.5006)
(95.1589 40.5434 57.8206)
(91.6695 43.4977 63.0791)
(87.9487 46.159 68.2707)
(84.0199 48.5089 73.3898)
(79.9078 50.5306 78.431)
(75.6385 52.2095 83.3889)
(71.2391 53.5327 88.2583)
(66.7377 54.4897 93.0341)
(62.1633 55.0718 97.711)
(57.5453 55.273 102.284)
(38.0929 -50.1104 -121.867)
(39.241 -52.2203 -119.445)
(43.7311 -53.5609 -115.334)
(48.2988 -54.5181 -111.1)
(52.9137 -55.089 -106.749)
(57.5453 -55.273 -102.284)
(62.1633 -55.0718 -97.711)
(66.7377 -54.4897 -93.0341)
(71.2391 -53.5327 -88.2583)
(75.6385 -52.2095 -83.3889)
(79.9078 -50.5306 -78.431)
(84.0199 -48.5089 -73.3898)
(87.9487 -46.159 -68.2707)
(91.6695 -43.4977 -63.0791)
(95.1589 -40.5434 -57.8206)
(98.3949 -37.3163 -52.5006)
(101.357 -33.838 -47.125)
(104.028 -30.132 -41.6993)
(106.389 -26.2227 -36.2293)
(108.428 -22.1357 -30.7209)
(110.13 -17.8979 -25.1799)
(111.486 -13.5369 -19.6121)
(112.487 -9.08089 -14.0236)
(113.127 -4.55885 -8.4201)
(113.402 -5.69698e-15 -2.80769)
(113.31 4.56622 2.80769)
(112.851 9.11031 8.4201)
(112.03 13.6029 14.0236)
(110.851 18.015 19.6121)
(109.32 22.3179 25.1799)
(107.449 26.4837 30.7209)
(105.247 30.4853 36.2293)
(102.73 34.2963 41.6993)
(99.9126 37.8919 47.125)
(96.8125 41.248 52.5006)
(93.4492 44.3422 57.8206)
(89.8437 47.1536 63.0791)
(86.0188 49.663 68.2707)
(81.9985 51.8527 73.3898)
(77.8083 53.7072 78.431)
(73.4749 55.2128 83.3889)
(69.0258 56.3578 88.2583)
(64.4895 57.1327 93.0341)
(59.8953 57.5302 97.711)
(41.3119 -50.5979 -119.445)
(40.75 -47.9746 -121.867)
(43.3157 -48.8934 -119.445)
(43.2875 -45.6981 -121.867)
(45.2493 -47.1096 -119.445)
(45.6981 -43.2875 -121.867)
(47.1096 -45.2493 -119.445)
(48.8934 -43.3157 -119.445)
(51.7566 -45.8524 -115.334)
(53.5609 -43.7311 -115.334)
(56.4187 -46.0644 -111.1)
(58.2278 -43.7553 -111.1)
(61.0654 -45.8876 -106.749)
(62.8635 -43.3916 -106.749)
(65.6665 -45.3263 -102.284)
(67.4383 -42.6454 -102.284)
(70.1924 -44.387 -97.711)
(71.9228 -41.5246 -97.711)
(74.6142 -43.0786 -93.0341)
(76.2883 -40.0392 -93.0341)
(78.9038 -41.4119 -88.2583)
(80.5073 -38.2012 -88.2583)
(83.034 -39.4001 -83.3889)
(84.5531 -36.0247 -83.3889)
(86.9787 -37.0582 -78.431)
(88.4003 -33.5258 -78.431)
(90.7132 -34.403 -73.3898)
(92.0249 -30.7224 -73.3898)
(94.2142 -31.4533 -68.2707)
(95.4043 -27.6342 -68.2707)
(97.4599 -28.2296 -63.0791)
(98.5176 -24.2824 -63.0791)
(100.43 -24.7538 -57.8206)
(101.345 -20.6898 -57.8206)
(103.107 -21.0494 -52.5006)
(103.871 -16.8806 -52.5006)
(105.473 -17.141 -47.125)
(106.077 -12.8801 -47.125)
(107.514 -13.0546 -41.6993)
(107.953 -8.71483 -41.6993)
(109.218 -8.817 -36.2293)
(109.485 -4.41208 -36.2293)
(110.575 -4.456 -30.7209)
(110.664 6.8666e-15 -30.7209)
(111.575 4.35012e-15 -25.1799)
(111.485 4.49268 -25.1799)
(112.214 4.52206 -19.6121)
(111.941 9.03679 -19.6121)
(112.487 9.08089 -14.0236)
(112.03 13.6029 -14.0236)
(112.393 13.647 -8.4201)
(111.752 18.1615 -8.4201)
(111.933 18.1909 -2.80769)
(111.11 22.6832 -2.80769)
(111.11 22.6832 2.80769)
(110.106 27.1388 2.80769)
(109.929 27.095 8.4201)
(108.749 31.4994 8.4201)
(108.397 31.3977 14.0236)
(107.045 35.7369 14.0236)
(106.525 35.5634 19.6121)
(105.007 39.8239 19.6121)
(104.325 39.5651 25.1799)
(102.647 43.7337 25.1799)
(101.809 43.3767 30.7209)
(99.9797 47.441 30.7209)
(98.9942 46.9733 36.2293)
(97.0225 50.9213 36.2293)
(95.8982 50.3313 41.6993)
(93.7938 54.1519 41.6993)
(92.5405 53.4283 47.125)
(90.3141 57.1112 47.125)
(88.9422 56.2436 52.5006)
(86.6053 59.7793 52.5006)
(85.126 58.7583 57.8206)
(82.691 62.1383 57.8206)
(81.1163 60.9549 63.0791)
(78.5961 64.1717 63.0791)
(76.9383 62.8182 68.2707)
(74.3465 65.8653 68.2707)
(72.6189 64.3347 73.3898)
(69.9695 67.2066 73.3898)
(68.1855 65.493 78.431)
(47.9746 -40.75 -121.867)
(50.5979 -41.3119 -119.445)
(55.2784 -41.539 -115.334)
(59.9424 -41.3752 -111.1)
(64.5598 -40.8251 -106.749)
(69.1008 -39.8954 -102.284)
(73.5365 -38.5949 -97.711)
(77.8387 -36.9349 -93.0341)
(81.9802 -34.9285 -88.2583)
(85.9351 -32.5909 -83.3889)
(89.6786 -29.9391 -78.431)
(93.1874 -26.992 -73.3898)
(96.4397 -23.7702 -68.2707)
(99.4155 -20.2958 -63.0791)
(102.096 -16.5923 -57.8206)
(104.466 -12.6845 -52.5006)
(106.51 -8.59838 -47.125)
(108.216 -4.36095 -41.6993)
(109.573 9.37962e-15 -36.2293)
(110.575 4.456 -30.7209)
(111.213 8.97807 -25.1799)
(111.486 13.5369 -19.6121)
(111.392 18.1029 -14.0236)
(110.931 22.6466 -8.4201)
(110.106 27.1388 -2.80769)
(108.924 31.5503 2.80769)
(107.392 35.8527 8.4201)
(105.519 40.0182 14.0236)
(103.318 44.0198 19.6121)
(100.803 47.8314 25.1799)
(97.9884 51.4283 30.7209)
(94.8934 54.7867 36.2293)
(91.5373 57.8847 41.6993)
(87.9412 60.7014 47.125)
(84.128 63.2181 52.5006)
(80.1219 65.4175 57.8206)
(75.9484 67.2844 63.0791)
(71.6341 68.8055 68.2707)
(50.1104 -38.0929 -121.867)
(52.2203 -39.241 -119.445)
(56.9061 -39.2795 -115.334)
(61.5598 -38.9281 -111.1)
(66.1513 -38.1924 -106.749)
(70.6512 -37.0806 -102.284)
(75.0309 -35.6026 -97.711)
(79.2628 -33.7707 -93.0341)
(83.3202 -31.5992 -88.2583)
(87.1777 -29.1042 -83.3889)
(90.8114 -26.3038 -78.431)
(94.1986 -23.2179 -73.3898)
(97.3186 -19.8677 -68.2707)
(100.152 -16.2763 -63.0791)
(102.682 -12.4678 -57.8206)
(104.892 -8.46776 -52.5006)
(106.77 -4.30268 -47.125)
(108.304 1.18865e-14 -41.6993)
(109.485 4.41208 -36.2293)
(110.305 8.90478 -30.7209)
(110.762 13.4489 -25.1799)
(110.851 18.015 -19.6121)
(110.572 22.5735 -14.0236)
(109.929 27.095 -8.4201)
(108.924 31.5503 -2.80769)
(107.566 35.9106 2.80769)
(105.861 40.1479 8.4201)
(103.822 44.2346 14.0236)
(101.462 48.1443 19.6121)
(98.7949 51.8515 25.1799)
(95.8381 55.3322 30.7209)
(92.6104 58.5633 36.2293)
(89.1323 61.5236 41.6993)
(85.4257 64.1932 47.125)
(81.5143 66.5543 52.5006)
(77.4228 68.5907 57.8206)
(73.1775 70.288 63.0791)
(53.758 -37.1065 -119.445)
(52.0992 -35.3241 -121.867)
(55.2085 -34.9118 -119.445)
(53.9352 -32.4517 -121.867)
(56.5695 -32.6604 -119.445)
(55.613 -29.4842 -121.867)
(57.8387 -30.3561 -119.445)
(59.0141 -28.0026 -119.445)
(62.4701 -29.6424 -115.334)
(63.613 -27.103 -115.334)
(67.0071 -28.5491 -111.1)
(68.1023 -25.8278 -111.1)
(71.4211 -27.0865 -106.749)
(72.4539 -24.1887 -106.749)
(75.6844 -25.2672 -102.284)
(76.6404 -22.1992 -102.284)
(79.7703 -23.1058 -97.711)
(80.636 -19.875 -97.711)
(83.6535 -20.6187 -93.0341)
(84.4159 -17.2336 -93.0341)
(87.3101 -17.8245 -88.2583)
(87.957 -14.2944 -88.2583)
(90.7174 -14.743 -83.3889)
(91.2375 -11.0782 -83.3889)
(93.8548 -11.396 -78.431)
(94.2376 -7.60764 -78.431)
(96.7032 -7.80669 -73.3898)
(96.9391 -3.90651 -73.3898)
(99.2454 -3.99945 -68.2707)
(99.3259 2.42363e-14 -68.2707)
(101.466 2.17998e-14 -63.0791)
(101.384 4.08562 -63.0791)
(103.352 4.16494 -57.8206)
(103.1 8.32313 -57.8206)
(104.892 8.46776 -52.5006)
(104.466 12.6845 -52.5006)
(106.077 12.8801 -47.125)
(105.473 17.141 -47.125)
(106.901 17.3731 -41.6993)
(106.115 21.6635 -41.6993)
(107.359 21.9175 -36.2293)
(106.389 26.2227 -36.2293)
(107.449 26.4837 -30.7209)
(106.295 30.7887 -30.7209)
(107.17 31.0421 -25.1799)
(105.833 35.3323 -25.1799)
(106.525 35.5634 -19.6121)
(105.007 39.8239 -19.6121)
(105.519 40.0182 -14.0236)
(103.822 44.2346 -14.0236)
(104.159 44.3779 -8.4201)
(102.287 48.536 -8.4201)
(102.453 48.6144 -2.80769)
(100.412 52.7003 -2.80769)
(100.412 52.7003 2.80769)
(98.2086 56.7008 2.80769)
(98.0502 56.6093 8.4201)
(95.6913 60.5115 8.4201)
(95.3822 60.316 14.0236)
(92.8762 64.1078 14.0236)
(92.4251 63.7965 19.6121)
(89.7814 67.4663 19.6121)
(89.1979 67.0279 25.1799)
(86.4266 70.5652 25.1799)
(85.7211 69.9891 30.7209)
(82.8334 73.384 30.7209)
(82.0169 72.6607 36.2293)
(79.0247 75.9042 36.2293)
(78.1089 75.0247 41.6993)
(57.1277 -26.4301 -121.867)
(60.0938 -25.6036 -119.445)
(64.6527 -24.5196 -115.334)
(69.0871 -23.0647 -111.1)
(73.3691 -21.2516 -106.749)
(77.4721 -19.0952 -102.284)
(81.3709 -16.612 -97.711)
(85.0414 -13.8206 -93.0341)
(88.4612 -10.7411 -88.2583)
(91.6096 -7.39549 -83.3889)
(94.4675 -3.80691 -78.431)
(97.0178 2.6651e-14 -73.3898)
(99.2454 3.99945 -68.2707)
(101.137 8.16462 -63.0791)
(102.682 12.4678 -57.8206)
(103.871 16.8806 -52.5006)
(104.697 21.3741 -47.125)
(105.157 25.9188 -41.6993)
(105.247 30.4853 -36.2293)
(104.969 35.0438 -30.7209)
(104.325 39.5651 -25.1799)
(103.318 44.0198 -19.6121)
(101.957 48.3792 -14.0236)
(100.25 52.6153 -8.4201)
(98.2086 56.7008 -2.80769)
(95.8459 60.6093 2.80769)
(93.1771 64.3155 8.4201)
(90.2195 67.7955 14.0236)
(86.9919 71.0267 19.6121)
(83.5152 73.988 25.1799)
(79.8114 76.6599 30.7209)
(58.4748 -23.2985 -121.867)
(61.076 -23.1631 -119.445)
(65.5876 -21.8964 -115.334)
(69.9598 -20.2641 -111.1)
(74.1653 -18.2801 -106.749)
(78.1782 -15.9602 -102.284)
(81.9738 -13.322 -97.711)
(85.5289 -10.3851 -93.0341)
(88.822 -7.17045 -88.2583)
(91.8331 -3.70075 -83.3889)
(94.5442 2.90412e-14 -78.431)
(96.9391 3.90651 -73.3898)
(99.0038 7.99241 -68.2707)
(100.726 12.2304 -63.0791)
(102.096 16.5923 -57.8206)
(103.107 21.0494 -52.5006)
(103.751 25.5724 -47.125)
(104.028 30.132 -41.6993)
(103.934 34.6984 -36.2293)
(103.473 39.2421 -30.7209)
(102.647 43.7337 -25.1799)
(101.462 48.1443 -19.6121)
(99.9263 52.4454 -14.0236)
(98.0502 56.6093 -8.4201)
(95.8459 60.6093 -2.80769)
(93.3277 64.4194 2.80769)
(90.5118 68.0152 8.4201)
(87.4165 71.3733 14.0236)
(84.0614 74.4719 19.6121)
(80.4682 77.2908 25.1799)
(59.6504 -20.0986 -121.867)
(61.9592 -20.685 -119.445)
(66.4161 -19.2377 -115.334)
(70.719 -17.4307 -111.1)
(74.8412 -15.2789 -106.749)
(78.7574 -12.7993 -102.284)
(82.4437 -10.0105 -97.711)
(85.8777 -6.93277 -93.0341)