/*--------------------------------*- C++ -*----------------------------------*\
  =========                 |
  \\      /  F ield         | OpenFOAM: The Open Source CFD Toolbox
   \\    /   O peration     | Website:  https://openfoam.org
    \\  /    A nd           | Version:  6
     \\/     M anipulation  |
\*---------------------------------------------------------------------------*/
FoamFile
{
    version     2.0;
    format      ascii;
    class       featureEdgeMesh;
    location    "constant/triSurface";
    object      airfoil.eMesh;
}
// * * * * * * * * * * * * * * * * * * * * * * * * * * * * * * * * * * * * * //


// points:

112
(
(-0.004782 0.055827 -0.2)
(-0.004782 0.055827 0.2)
(0.043022 0.026597 -0.2)
(0.043022 0.026597 0.2)
(8.7e-05 -0.001875 -0.2)
(8.7e-05 -0.001875 0.2)
(0.983456 -0.08567 -0.2)
(0.983456 -0.08567 0.2)
(0.983808 -0.084747 -0.2)
(0.983808 -0.084747 0.2)
(-0 0 -0.2)
(0 -0 0.2)
(0.052529 0.029253 -0.2)
(0.052529 0.029253 0.2)
(0.075644 0.033465 -0.2)
(0.075644 0.033464 0.2)
(0.102777 0.036441 -0.2)
(0.102777 0.036441 0.2)
(0.003907 -0.00778 -0.2)
(0.003907 -0.00778 0.2)
(0.012906 -0.014028 -0.2)
(0.012906 -0.014028 0.2)
(0.026749 -0.019997 -0.2)
(0.026749 -0.019997 0.2)
(0.045583 -0.02548 -0.2)
(0.045583 -0.02548 0.2)
(0.069422 -0.030547 -0.2)
(0.069422 -0.030547 0.2)
(0.098028 -0.035278 -0.2)
(0.098028 -0.035278 0.2)
(0.131112 -0.039668 -0.2)
(0.131112 -0.039668 0.2)
(0.16833 -0.043717 -0.2)
(0.16833 -0.043717 0.2)
(0.133759 0.038097 -0.2)
(0.133759 0.038097 0.2)
(0.168407 0.038388 -0.2)
(0.168407 0.038388 0.2)
(0.206439 0.03733 -0.2)
(0.206439 0.03733 0.2)
(0.209343 -0.047426 -0.2)
(0.209343 -0.047426 0.2)
(0.253726 -0.050827 -0.2)
(0.253726 -0.050827 0.2)
(0.247568 0.034946 -0.2)
(0.247568 0.034946 0.2)
(0.301003 -0.053959 -0.2)
(0.301003 -0.053959 0.2)
(0.291437 0.031299 -0.2)
(0.291437 0.031299 0.2)
(0.337643 0.026483 -0.2)
(0.337643 0.026483 0.2)
(0.350639 -0.056857 -0.2)
(0.350639 -0.056857 0.2)
(0.385764 0.020607 -0.2)
(0.385764 0.020607 0.2)
(0.40206 -0.059548 -0.2)
(0.40206 -0.059548 0.2)
(0.454694 -0.062035 -0.2)
(0.454694 -0.062035 0.2)
(0.507937 -0.064314 -0.2)
(0.507937 -0.064314 0.2)
(0.561189 -0.066393 -0.2)
(0.561189 -0.066393 0.2)
(0.613867 -0.068262 -0.2)
(0.613867 -0.068262 0.2)
(0.435351 0.013819 -0.2)
(0.435351 0.013819 0.2)
(0.485895 0.006265 -0.2)
(0.485895 0.006265 0.2)
(0.536871 -0.001858 -0.2)
(0.536871 -0.001858 0.2)
(0.58774 -0.010404 -0.2)
(0.58774 -0.010404 0.2)
(0.637926 -0.019182 -0.2)
(0.637926 -0.019182 0.2)
(0.665417 -0.069931 -0.2)
(0.665417 -0.069931 0.2)
(0.686903 -0.028004 -0.2)
(0.686903 -0.028004 0.2)
(0.715322 -0.071486 -0.2)
(0.715322 -0.071486 0.2)
(0.734087 -0.036679 -0.2)
(0.734087 -0.036679 0.2)
(0.778891 -0.045016 -0.2)
(0.778891 -0.045016 0.2)
(0.762976 -0.073056 -0.2)
(0.762976 -0.073056 0.2)
(0.820753 -0.052895 -0.2)
(0.820753 -0.052895 0.2)
(0.807742 -0.074714 -0.2)
(0.807742 -0.074714 0.2)
(0.859145 -0.060168 0.2)
(0.859145 -0.060168 -0.2)
(0.848975 -0.076484 -0.2)
(0.848975 -0.076484 0.2)
(0.893583 -0.066745 -0.2)
(0.893583 -0.066745 0.2)
(0.886113 -0.078348 -0.2)
(0.886113 -0.078348 0.2)
(0.923583 -0.072532 -0.2)
(0.923583 -0.072532 0.2)
(0.918598 -0.080287 -0.2)
(0.918598 -0.080287 0.2)
(0.948784 -0.077517 -0.2)
(0.948784 -0.077517 0.2)
(0.945952 -0.082238 -0.2)
(0.945952 -0.082238 0.2)
(0.967693 -0.08409 -0.2)
(0.967693 -0.08409 0.2)
(0.96892 -0.081658 -0.2)
(0.96892 -0.081658 0.2)
)


// edges:

117
(
(2 3)
(0 1)
(5 4)
(7 6)
(8 9)
(10 0)
(1 11)
(0 2)
(3 1)
(2 12)
(13 3)
(12 14)
(15 13)
(14 16)
(17 15)
(4 10)
(11 5)
(18 4)
(5 19)
(20 18)
(19 21)
(22 20)
(21 23)
(24 22)
(23 25)
(26 24)
(25 27)
(28 26)
(27 29)
(30 28)
(29 31)
(32 30)
(31 33)
(16 34)
(35 17)
(34 36)
(37 35)
(36 38)
(39 37)
(40 32)
(33 41)
(42 40)
(41 43)
(38 44)
(45 39)
(46 42)
(43 47)
(44 48)
(49 45)
(48 50)
(51 49)
(52 46)
(47 53)
(50 54)
(55 51)
(56 52)
(53 57)
(58 56)
(57 59)
(60 58)
(59 61)
(62 60)
(61 63)
(64 62)
(63 65)
(54 66)
(67 55)
(66 68)
(69 67)
(68 70)
(71 69)
(70 72)
(73 71)
(72 74)
(75 73)
(76 64)
(65 77)
(74 78)
(79 75)
(80 76)
(77 81)
(78 82)
(83 79)
(82 84)
(85 83)
(86 80)
(81 87)
(84 88)
(89 85)
(90 86)
(87 91)
(92 89)
(88 93)
(94 90)
(91 95)
(93 96)
(97 92)
(98 94)
(95 99)
(96 100)
(101 97)
(102 98)
(99 103)
(100 104)
(105 101)
(106 102)
(103 107)
(108 106)
(107 109)
(6 108)
(109 7)
(104 110)
(111 105)
(110 8)
(9 111)
(7 9)
(8 6)
)

// * * * * * * * * * * * * * * * * * * * * * * * * * * * * * * * * * * * * * //


// ************************************************************************* //
