/*--------------------------------*- C++ -*----------------------------------*\
| =========                 |                                                 |
| \\      /  F ield         | OpenFOAM: The Open Source CFD Toolbox           |
|  \\    /   O peration     | Version:  2212                                  |
|   \\  /    A nd           | Website:  www.openfoam.com                      |
|    \\/     M anipulation  |                                                 |
\*---------------------------------------------------------------------------*/
FoamFile
{
    version     2.0;
    format      ascii;
    arch        "LSB;label=64;scalar=64";
    class       polyBoundaryMesh;
    location    "constant/polyMesh";
    object      boundary;
}
// * * * * * * * * * * * * * * * * * * * * * * * * * * * * * * * * * * * * * //

5
(
    bottom
    {
        type            wall;
        inGroups        1(wall);
        nFaces          128;
        startFace       65152;
    }
    top
    {
        type            patch;
        nFaces          128;
        startFace       65280;
    }
    left
    {
        type            wall;
        inGroups        1(wall);
        nFaces          256;
        startFace       65408;
    }
    right
    {
        type            wall;
        inGroups        1(wall);
        nFaces          256;
        startFace       65664;
    }
    frontAndBack
    {
        type            empty;
        inGroups        1(empty);
        nFaces          65536;
        startFace       65920;
    }
)

// ************************************************************************* //
