/*--------------------------------*- C++ -*----------------------------------*\
| =========                 |                                                 |
| \\      /  F ield         | OpenFOAM: The Open Source CFD Toolbox           |
|  \\    /   O peration     | Version:  v2206                                 |
|   \\  /    A nd           | Website:  www.openfoam.com                      |
|    \\/     M anipulation  |                                                 |
\*---------------------------------------------------------------------------*/
FoamFile
{
    version     2.0;
    format      ascii;
    class       dictionary;
    object      controlDict;
}
// * * * * * * * * * * * * * * * * * * * * * * * * * * * * * * * * * * * * * //

application     multiphaseInterFoam;

startFrom       startTime;

startTime       0;

stopAt          endTime;

endTime         0.5;

deltaT          1e-5;

writeControl    adjustable;

writeInterval   0.02;

purgeWrite      0;

writeFormat     ascii;

writePrecision  6;

writeCompression off;

timeFormat      general;

timePrecision   6;

runTimeModifiable yes;

adjustTimeStep  yes;

maxDeltaT       1e-2;

maxCo           2.0;

maxAlphaCo      1.0;

functions
{
    scalar1
    {
        type            scalarTransport;
        libs            (solverFunctionObjects);
        // libs            ("libsolverFunctionObjects.so");

        // Optional entries

        // Name of scalar field to transport, default = 's'
        field           brine;

        // // Name of flux field, default = 'phi'
        // // phi             phi;
        // phi             philiquidCorr;

        // // Name of density field for compressible cases, default = 'rho'
        // rho             rho;

        // Name of phase field to constrain scalar to, default = 'none'
        phase           alpha.liquid;
        bounded01       false;

        // // Set the scalar to zero on start/re-start
        // resetOnStartUp  no;

        // // Name of field to use when looking up schemes from fvSchemes
        // // default = <field>
        // schemesField    U;


        // // Diffusivity

        // // Fixed value diffusivity
        // D               0.001;

        // // Name of field to use as diffusivity, default = 'none'
        // nut             none;

        // // Run-time selectable sources
        // // fvOptions
        // // {
        // //     ...
        // // }

        // startFrom       startTime;
        // stopAt          endTime;
        // writeControl    adjustable;
        // writeInterval   $writeInterval;
    }
}


// ************************************************************************* //
