/*--------------------------------*- C++ -*----------------------------------*\
  =========                 |
  \\      /  F ield         | OpenFOAM: The Open Source CFD Toolbox
   \\    /   O peration     | Website:  https://openfoam.org
    \\  /    A nd           | Version:  6
     \\/     M anipulation  |
\*---------------------------------------------------------------------------*/
FoamFile
{
    version     2.0;
    format      ascii;
    class       volScalarField;
    location    "0";
    object      omega;
}
// * * * * * * * * * * * * * * * * * * * * * * * * * * * * * * * * * * * * * //

dimensions      [0 0 -1 0 0 0 0];

internalField   uniform  0.3354;

boundaryField
{
    airfoil
    {
        type            omegaWallFunction;
        value            uniform 2000;
        // value           uniform  2136.41;
    }
    west
    {
        type            fixedValue;
        value           $internalField;
    }
    east
    {
	    type            inletOutlet;
        inletValue      $internalField;
        value           $internalField;
    }
    north
    {
	    type            slip;
    }
    south
    {
	    type            slip;
    }
    front
    {
        type            empty;
    }
    back
    {
        type            empty;
    }
}
// ************************************************************************* //
