/*--------------------------------*- C++ -*----------------------------------*\
| =========                 |                                                 |
| \\      /  F ield         | OpenFOAM: The Open Source CFD Toolbox           |
|  \\    /   O peration     | Version:  2212                                  |
|   \\  /    A nd           | Website:  www.openfoam.com                      |
|    \\/     M anipulation  |                                                 |
\*---------------------------------------------------------------------------*/
FoamFile
{
    version     2.0;
    format      ascii;
    arch        "LSB;label=64;scalar=64";
    class       polyBoundaryMesh;
    location    "constant/polyMesh";
    object      boundary;
}
// * * * * * * * * * * * * * * * * * * * * * * * * * * * * * * * * * * * * * //

3
(
    GeoTop
    {
        type            wall;
        inGroups        1(wall);
        nFaces          1640;
        startFace       1306361;
    }
    GeoTank
    {
        type            wall;
        inGroups        1(wall);
        nFaces          29416;
        startFace       1308001;
    }
    GeoShaft
    {
        type            wall;
        inGroups        1(wall);
        nFaces          20512;
        startFace       1337417;
    }
)

// ************************************************************************* //
