/*--------------------------------*- C++ -*----------------------------------*\
| =========                 |                                                 |
| \\      /  F ield         | OpenFOAM: The Open Source CFD Toolbox           |
|  \\    /   O peration     | Version:  v2212                                 |
|   \\  /    A nd           | Website:  www.openfoam.com                      |
|    \\/     M anipulation  |                                                 |
\*---------------------------------------------------------------------------*/
FoamFile
{
    version     2.0;
    format      ascii;
    class       volScalarField;
    object      k;
}
// * * * * * * * * * * * * * * * * * * * * * * * * * * * * * * * * * * * * * //

dimensions      [0 2 -2 0 0 0 0];

internalField   uniform 1.0;

boundaryField
{
    // #include            "include/ABLConditions"

    // inlet
    // {
    //     type            atmBoundaryLayerInletK;
    //     #include        "include/ABLConditions"
    //     value           uniform 0;
    // }

    // outlet
    // {
    //     type            zeroGradient;
    // }

    inlet
    {
        type            cyclic;
    }

    outlet
    {
        type            cyclic;
    }

    upperAtm
    {
        type            zeroGradient;
    }

    ground
    {
        type            kqRWallFunction;
        value           uniform 0.1;
    }

    frontAtm
    {
        type            cyclic;
    }

    backAtm
    {
        type            cyclic;
    }
}


// ************************************************************************* //
