/*--------------------------------*- C++ -*----------------------------------*\
| =========                 |                                                 |
| \\      /  F ield         | OpenFOAM: The Open Source CFD Toolbox           |
|  \\    /   O peration     | Version:  2212                                  |
|   \\  /    A nd           | Website:  www.openfoam.com                      |
|    \\/     M anipulation  |                                                 |
\*---------------------------------------------------------------------------*/
FoamFile
{
    version     2.0;
    format      ascii;
    arch        "LSB;label=64;scalar=64";
    class       extendedFeatureEdgeMesh;
    location    "constant/extendedFeatureEdgeMesh";
    object      icedAirfoil_1_0.extendedFeatureEdgeMesh;
}
// * * * * * * * * * * * * * * * * * * * * * * * * * * * * * * * * * * * * * //

// points

16
(
(0.01117 0.014896 -1)
(0.028306 0.025208 -1)
(0.01117 0.014896 1)
(0.028307 0.025208 -1)
(0.01117 0.014896 -1)
(0.028307 0.025209 -1)
(1.00001 0 1)
(1.00001 0 -1)
(0.00025 -0.00186 -1)
(0.00025 -0.00186 1)
(0.028307 0.025208 1)
(0.028307 0.025208 1)
(0.01117 0.014896 1)
(0.028307 0.025208 -1)
(0.01117 0.014896 1)
(0.01117 0.014896 -1)
)

// edges

15
(
(3 5)
(11 3)
(11 10)
(2 0)
(12 2)
(4 0)
(5 1)
(3 1)
(13 1)
(12 14)
(15 0)
(6 7)
(8 9)
(10 3)
(4 2)
)

// concaveStart mixedStart nonFeatureStart
2 2 4
// internalStart flatStart openStart multipleStart
11 14 14 14
// normals

20
(
(0.603155428 -0.7976236768 0)
(0 0 0)
(-0.9316407526 -0.3633806655 -0)
(1 0 0)
(0 0 -1)
(0 1 -0)
(-0.09642360015 -0.9953403887 0)
(0.7891224799 0.6142358763 0)
(0.9869020654 -0.1613205299 0)
(0.4626672316 -0.8865320258 0)
(0 0 0)
(0 0 0)
(0 0 0)
(0 0 0)
(0 0 0)
(0 0 0)
(0 0 0)
(0 0 0)
(0 0 0)
(0 0 0)
)

// normal volume types

20
(
0
0
0
0
0
0
0
0
0
0
0
0
0
0
0
0
0
0
0
0
)

// normalDirections

15
(
2(1 -1)
2(1 -1)
2{-1}
2{-1}
2{-1}
2{-1}
2{-1}
2(1 -1)
2{-1}
2{-1}
2{-1}
2(1 -1)
2(1 -1)
2(1 -1)
3(1 -1 1)
)

// edgeNormals

15
(
2(3 4)
2(3 10)
2(10 11)
2(12 1)
2(12 13)
2(1 14)
2(15 4)
2(4 16)
2(16 17)
2(13 18)
2(14 19)
2(5 6)
2(7 8)
2(9 10)
3(0 1 2)
)

// featurePointNormals

4
(
4(12 1 14 19)
4(15 4 16 17)
5(12 1 13 0 2)
5(3 4 10 16 9)
)

// featurePointEdges

4
(
3(3 5 10)
3(6 7 8)
3(14 3 4)
4(13 1 0 7)
)

// regionEdges
1(14)


// ************************************************************************* //
