/*--------------------------------*- C++ -*----------------------------------*\
| =========                 |                                                 |
| \\      /  F ield         | OpenFOAM: The Open Source CFD Toolbox           |
|  \\    /   O peration     | Version:  2212                                  |
|   \\  /    A nd           | Website:  www.openfoam.com                      |
|    \\/     M anipulation  |                                                 |
\*---------------------------------------------------------------------------*/
FoamFile
{
    version     2.0;
    format      ascii;
    arch        "LSB;label=64;scalar=64";
    class       extendedFeatureEdgeMesh;
    location    "constant/extendedFeatureEdgeMesh";
    object      simplified.extendedFeatureEdgeMesh;
}
// * * * * * * * * * * * * * * * * * * * * * * * * * * * * * * * * * * * * * //

// points

126
(
(25.4228 -0.219842 52.4988)
(25.4228 10.0002 52.4988)
(2.35111 10.0002 -36.5564)
(2.35111 -0.219828 -36.5564)
(23.7341 10.0002 -42.0924)
(23.7341 -0.219827 -42.0924)
(46.8883 10.0002 47.0423)
(46.8883 -0.219841 47.0423)
(5.89488 -0.219846 80.2802)
(5.89488 10.0002 80.2802)
(0.429089 10.0002 58.9439)
(0.429089 -0.219843 58.9439)
(46.8883 10.0002 47.0423)
(46.8883 -0.219841 47.0423)
(52.3541 10.0002 68.3786)
(52.3541 -0.219845 68.3786)
(-23.2389 -0.187948 87.9396)
(-23.2389 52.1249 87.9396)
(-28.7659 52.1249 66.5796)
(-28.7659 -0.187945 66.5796)
(0.42909 52.1249 58.9439)
(0.42909 -0.219843 58.9439)
(5.88471 52.1249 80.4034)
(5.88471 -0.187947 80.4034)
(18.6411 0.501076 -63.0274)
(18.6411 34.1742 -63.0274)
(5.79111 34.1339 -113.057)
(5.95699 0.525455 -113.098)
(23.2711 34.1114 -117.347)
(23.2711 0.449785 -117.347)
(36.0311 34.1347 -67.6574)
(36.0311 0.501077 -67.6574)
(-11.6589 0.502286 -124.687)
(-11.6589 33.9134 -124.687)
(-24.4189 34.0105 -174.447)
(-24.4189 0.466294 -174.447)
(-7.09889 33.9019 -178.887)
(-7.09889 0.466295 -178.887)
(5.74111 34.0441 -129.037)
(5.74111 0.502287 -129.037)
(-83.1089 -0.422738 21.8026)
(-83.1089 34.4307 21.8026)
(-79.4989 34.4051 -15.6074)
(-79.4989 -0.444232 -15.6074)
(-68.5889 34.4158 -14.5274)
(-68.5889 -0.444232 -14.5274)
(-72.0489 34.4398 22.8131)
(-72.0489 -0.422738 22.8131)
(-81.8989 -0.453241 40.8226)
(-81.8989 28.7078 40.8226)
(-80.0588 28.6973 22.0813)
(-80.0588 -0.453238 22.0813)
(-69.0989 28.6998 23.0826)
(-69.0989 -0.453238 23.0826)
(-70.899 28.7103 41.8332)
(-70.899 -0.453241 41.8332)
(-80.5089 -0.441247 78.7126)
(-80.5089 23.0016 78.7126)
(-76.9286 22.9786 41.2792)
(-76.9286 -0.481441 41.2792)
(-65.8989 23.0026 42.2926)
(-65.8989 -0.481441 42.2926)
(-69.5389 23.0289 79.7626)
(-69.5389 -0.441247 79.7626)
(-138.457 -0.599747 76.4207)
(-138.457 22.8386 76.4207)
(-143.36 22.8183 55.9983)
(-143.36 -0.599743 55.9983)
(-131.659 22.8265 53.3426)
(-131.659 -0.599743 53.3426)
(-126.939 22.8468 73.8426)
(-126.939 -0.599746 73.8426)
(-143.758 -0.611243 56.0886)
(-143.758 28.5455 56.0886)
(-148.499 28.5396 37.9014)
(-148.499 -0.61124 37.9013)
(-142.639 28.5411 36.5826)
(-142.639 -0.61124 36.5826)
(-138.439 28.5468 54.8815)
(-138.439 -0.611243 54.8815)
(-148.499 -0.61124 37.9013)
(-148.499 34.261 37.9029)
(-155.782 34.2558 9.96383)
(-155.782 -0.598236 9.96382)
(-151.971 34.262 8.97009)
(-151.971 -0.598236 8.97009)
(-145.5 34.2654 37.2273)
(-145.5 -0.57844 37.2273)
(-102.299 0.488273 -42.4874)
(-102.299 33.8848 -42.4874)
(-96.1089 33.8743 -93.5774)
(-96.1089 0.477281 -93.5774)
(-78.2189 34.1941 -91.5774)
(-78.2189 0.477281 -91.5774)
(-84.4389 33.8856 -40.4874)
(-84.4389 0.488273 -40.4874)
(-113.489 0.470584 -114.487)
(-113.489 33.8565 -114.487)
(-107.269 33.874 -165.637)
(-107.269 0.510793 -165.637)
(-89.4989 33.8992 -163.517)
(-89.4989 0.510793 -163.517)
(-95.7189 33.8735 -112.367)
(-95.7189 0.470584 -112.367)
(-169.686 -0.445206 -172.062)
(-169.686 17.6888 -172.062)
(-168.231 18.2246 -186.651)
(-168.231 -0.445204 -186.651)
(-113.848 18.3063 -181.203)
(-113.848 -0.445205 -181.203)
(-115.295 17.9651 -166.574)
(-115.295 -0.445207 -166.574)
(-173.211 0.671275 -56.8885)
(-173.211 36.0664 -56.8885)
(-181.889 36.0413 -90.1761)
(-181.889 0.60758 -90.1761)
(-169.164 36.0258 -89.2474)
(-169.164 0.60758 -89.2474)
(-197.979 33.3083 -161.577)
(-197.979 0.544092 -161.577)
(-180.579 33.3078 -159.417)
(-180.579 0.544092 -159.417)
(-186.831 33.3338 -109.135)
(-186.831 0.495784 -109.135)
(-198.794 33.2957 -155.023)
(-198.794 0.544091 -155.023)
)

// edges

188
(
(0 1)
(1 2)
(2 3)
(3 0)
(2 4)
(4 5)
(5 3)
(4 6)
(6 7)
(7 5)
(6 1)
(0 7)
(8 9)
(9 10)
(10 11)
(11 8)
(10 12)
(12 13)
(13 11)
(12 14)
(14 15)
(15 13)
(14 9)
(8 15)
(16 17)
(17 18)
(18 19)
(19 16)
(18 20)
(20 21)
(21 19)
(20 22)
(22 23)
(23 21)
(22 17)
(16 23)
(24 25)
(25 26)
(26 27)
(27 24)
(26 28)
(28 29)
(29 27)
(28 30)
(30 31)
(31 29)
(30 25)
(24 31)
(32 33)
(33 34)
(34 35)
(35 32)
(34 36)
(36 37)
(37 35)
(36 38)
(38 39)
(39 37)
(38 33)
(32 39)
(40 41)
(41 42)
(42 43)
(43 40)
(42 44)
(44 45)
(45 43)
(44 46)
(46 47)
(47 45)
(46 41)
(40 47)
(48 49)
(49 50)
(50 51)
(51 48)
(50 52)
(52 53)
(53 51)
(52 54)
(54 55)
(55 53)
(54 49)
(48 55)
(56 57)
(57 58)
(58 59)
(59 56)
(58 60)
(60 61)
(61 59)
(60 62)
(62 63)
(63 61)
(62 57)
(56 63)
(64 65)
(65 66)
(66 67)
(67 64)
(66 68)
(68 69)
(69 67)
(68 70)
(70 71)
(71 69)
(70 65)
(64 71)
(72 73)
(73 74)
(74 75)
(75 72)
(74 76)
(76 77)
(77 75)
(76 78)
(78 79)
(79 77)
(78 73)
(72 79)
(80 81)
(81 82)
(82 83)
(83 80)
(82 84)
(84 85)
(85 83)
(84 86)
(86 87)
(87 85)
(86 81)
(80 87)
(88 89)
(89 90)
(90 91)
(91 88)
(90 92)
(92 93)
(93 91)
(92 94)
(94 95)
(95 93)
(94 89)
(88 95)
(96 97)
(97 98)
(98 99)
(99 96)
(98 100)
(100 101)
(101 99)
(100 102)
(102 103)
(103 101)
(102 97)
(96 103)
(104 105)
(105 106)
(106 107)
(107 104)
(106 108)
(108 109)
(109 107)
(108 110)
(110 111)
(111 109)
(110 105)
(104 111)
(112 113)
(113 114)
(114 115)
(115 112)
(114 116)
(116 117)
(117 115)
(116 113)
(112 117)
(124 118)
(118 119)
(119 125)
(118 120)
(120 121)
(121 119)
(120 122)
(122 123)
(123 121)
(122 124)
(125 123)
)

// concaveStart mixedStart nonFeatureStart
124 124 124
// internalStart flatStart openStart multipleStart
188 188 188 188
// normals

188
(
(-0.968041 0 0.250792)
(0.246364 0 0.969177)
(-2.96026e-09 1 1.69202e-07)
(-0.968041 0 0.250792)
(-0.250634 0 -0.968082)
(6.21546e-09 -1 -1.58816e-07)
(-0.250634 0 -0.968082)
(0.967878 0 -0.251422)
(5.71773e-09 -1 -1.58551e-07)
(-4.99486e-08 1 1.70041e-07)
(0.967878 0 -0.251422)
(0.246364 -0 0.969177)
(-0.968719 1.89573e-07 0.24816)
(0.24816 -4.85636e-08 0.968719)
(-3.80621e-08 1 1.03487e-07)
(-0.968719 0 0.24816)
(-0.24816 0 -0.968719)
(-1.36024e-08 -1 -1.37121e-07)
(-0.24816 0 -0.968719)
(0.968719 0 -0.248161)
(-4.67077e-09 -1 -1.86277e-07)
(5.63352e-08 1 2.19911e-07)
(0.968719 0 -0.248161)
(0.24816 -0 0.968719)
(-0.968115 -3.35201e-08 0.250504)
(0.250515 -1.29543e-07 0.968113)
(8.02782e-08 1 3.06943e-07)
(-0.968115 -3.83087e-08 0.250504)
(-0.25303 1.4795e-07 -0.967458)
(-1.88119e-09 -1 -1.39963e-07)
(-0.25303 2.77236e-07 -0.967458)
(0.969171 7.06062e-08 -0.246391)
(-0.000659964 -0.999998 0.00165411)
(-2.25519e-07 1 5.73334e-08)
(0.969171 3.76796e-08 -0.246391)
(0.250515 -1.4805e-07 0.968113)
(-0.968562 -2.21635e-08 0.248771)
(0.257282 -8.60925e-08 0.966336)
(0.00102456 0.999999 -0.00106987)
(-0.969368 -0.00508194 0.245562)
(-0.23835 -7.02233e-07 -0.971179)
(-0.000121388 -1 -0.000456141)
(-0.238351 0 -0.971179)
(0.968575 0 -0.248722)
(-0.00387296 -0.99999 0.00202678)
(0.00201279 0.999997 -0.000985634)
(0.968575 5.91605e-08 -0.248722)
(0.257282 -2.2985e-07 0.966336)
(-0.968659 -1.11517e-07 0.248394)
(0.242535 -4.35548e-07 0.970143)
(0.00635259 0.99998 0.000322547)
(-0.968659 0 0.248394)
(-0.248322 0 -0.968678)
(0.000169988 -1 0.000679722)
(-0.248322 -7.42686e-09 -0.968678)
(0.968392 2.89629e-08 -0.249431)
(0.000173677 -1 0.000677271)
(-0.00772718 0.99997 -0.000862021)
(0.968392 0 -0.249431)
(0.242536 -0 0.970142)
(-0.995376 1.92912e-08 -0.0960521)
(-0.0909861 -2.00008e-07 0.995852)
(-0.000904399 0.999999 -0.000771287)
(-0.995376 1.37811e-08 -0.0960521)
(0.0985102 1.42777e-07 -0.995136)
(-5.20352e-05 -1 0.000569531)
(0.0985103 1.14187e-07 -0.995136)
(0.995734 -1.0587e-08 0.0922655)
(-5.64639e-05 -1 0.00057039)
(-0.000757848 0.999999 -0.000712715)
(0.995734 -1.85259e-08 0.0922655)
(-0.0909861 -1.99956e-07 0.995852)
(-0.995214 1.34035e-08 -0.0977145)
(-0.0914883 -1.36594e-07 0.995806)
(-0.000175174 1 -0.000577352)
(-0.995214 0 -0.0977145)
(0.0909819 0 -0.995853)
(1.45751e-08 -1 -1.58643e-07)
(0.0909811 2.73276e-07 -0.995853)
(0.995423 -2.62239e-08 0.095563)
(1.449e-08 -1 -1.58604e-07)
(-0.000174119 1 -0.000576591)
(0.995423 -1.31072e-08 0.095563)
(-0.0914883 -1.36583e-07 0.995806)
(-0.995457 0 -0.09521)
(-0.0952798 0 0.995451)
(-0.00210086 0.999997 -0.000815225)
(-0.995457 1.62336e-08 -0.09521)
(0.091494 1.69788e-07 -0.995806)
(-0.000101842 -0.999999 0.00106401)
(0.091494 1.69614e-07 -0.995806)
(0.995315 -1.6469e-08 0.0966892)
(-9.76868e-05 -0.999999 0.00106321)
(-0.00240763 0.999997 -0.000938289)
(0.995315 0 0.0966892)
(-0.0952798 0 0.995451)
(-0.972374 0 0.233428)
(0.218425 0 0.975854)
(-0.000879152 0.999999 -0.000785843)
(-0.972374 -3.98715e-08 0.233428)
(-0.221334 1.66572e-07 -0.975198)
(4.07861e-08 -1 -2.05654e-07)
(-0.221334 1.66514e-07 -0.975198)
(0.974503 3.83116e-08 -0.224374)
(-3.15647e-08 -1 -1.39074e-07)
(-0.00088274 0.999999 -0.0007869)
(0.974503 0 -0.224373)
(0.218425 -0 0.975854)
(-0.967658 -3.46082e-08 0.252265)
(0.221331 -1.33787e-07 0.975199)
(-0.000299696 1 -0.000243634)
(-0.967658 -3.46151e-08 0.252265)
(-0.219547 1.33869e-07 -0.975602)
(-3.5346e-08 -1 -1.55736e-07)
(-0.219547 1.33863e-07 -0.975602)
(0.97466 3.06925e-08 -0.22369)
(-3.50818e-08 -1 -1.55893e-07)
(-0.000296291 1 -0.000243439)
(0.97466 3.06865e-08 -0.22369)
(0.221331 -1.33781e-07 0.975199)
(-0.967658 -1.60277e-07 0.252265)
(0.219294 -4.57227e-05 0.975659)
(-0.00155846 0.999999 0.000221812)
(-0.967658 -5.79021e-08 0.252265)
(-0.252266 2.22105e-07 -0.967658)
(0.0102319 -0.999943 -0.00313287)
(-0.252265 0 -0.967658)
(0.974771 0 -0.223208)
(0.000172346 -1 0.000661101)
(-0.00141553 0.999999 0.000204662)
(0.974771 2.56238e-08 -0.223208)
(0.219798 -1.11991e-07 0.975545)
(-0.99274 1.08046e-08 -0.120279)
(-0.111286 -8.92718e-08 0.993788)
(-0.0176114 0.999842 -0.00233907)
(-0.99274 2.88119e-08 -0.120279)
(0.111102 2.38059e-07 -0.993809)
(-2.37704e-05 -1 0.00021227)
(0.111102 2.35802e-07 -0.993809)
(0.99267 -2.8675e-08 0.120853)
(-2.37295e-05 -1 0.000212261)
(-0.00071134 0.999982 0.00595177)
(0.99267 -1.0856e-08 0.120853)
(-0.111286 -8.92696e-08 0.993788)
(-0.992687 2.531e-08 -0.120714)
(-0.118462 -2.08193e-07 0.992959)
(-0.0014381 0.999999 0.000167449)
(-0.992687 0 -0.120714)
(0.118462 0 -0.992959)
(9.24424e-05 -1 -0.000774858)
(0.118462 0 -0.992959)
(0.992687 -0 0.120714)
(9.24421e-05 -1 -0.000774858)
(-0.00100226 0.999999 0.000380703)
(0.992687 -2.8911e-08 0.120714)
(-0.118462 -2.37814e-07 0.992959)
(-0.995061 0 -0.0992608)
(-0.100375 0 0.99495)
(-0.00512711 0.999332 0.0361884)
(-0.995061 0 -0.0992608)
(0.0996939 0 -0.995018)
(-4.51056e-09 -1 -1.37532e-07)
(0.0996939 0 -0.995018)
(0.995142 -0 0.0984513)
(-4.64349e-09 -1 -1.37182e-07)
(-0.00735741 0.999718 0.0225905)
(0.995142 0 0.0984513)
(-0.100375 0 0.99495)
(-0.967658 -5.70169e-08 0.252265)
(0.992271 -2.80473e-08 0.124092)
(0.00129813 0.999999 -0.00109338)
(-0.967658 0 0.252265)
(0.0727863 0 -0.997348)
(-0.000142353 -0.999998 0.00195058)
(0.0727863 0 -0.997348)
(0.992271 -0 0.124092)
(-0.992359 0 -0.123386)
(-0.000206763 0.999998 0.00189661)
(-0.992359 0 -0.123386)
(0.123192 0 -0.992383)
(-0.00273368 -0.999996 -0.000340048)
(0.123192 0 -0.992383)
(0.992358 -0 0.123389)
(0.00011745 -1 -0.000946125)
(-0.000813537 0.999999 -0.00061839)
(0.992358 -3.006e-08 0.123389)
(-0.967658 -6.14569e-08 0.252265)
(-0.967658 0 0.252265)
)

// normal volume types

188
(
0
0
0
0
0
0
0
0
0
0
0
0
0
0
0
0
0
0
0
0
0
0
0
0
0
0
0
0
0
0
0
0
0
0
0
0
0
0
0
0
0
0
0
0
0
0
0
0
0
0
0
0
0
0
0
0
0
0
0
0
0
0
0
0
0
0
0
0
0
0
0
0
0
0
0
0
0
0
0
0
0
0
0
0
0
0
0
0
0
0
0
0
0
0
0
0
0
0
0
0
0
0
0
0
0
0
0
0
0
0
0
0
0
0
0
0
0
0
0
0
0
0
0
0
0
0
0
0
0
0
0
0
0
0
0
0
0
0
0
0
0
0
0
0
0
0
0
0
0
0
0
0
0
0
0
0
0
0
0
0
0
0
0
0
0
0
0
0
0
0
0
0
0
0
0
0
0
0
0
0
0
0
0
0
0
0
0
0
)

// normalDirections

188
(
2(1 -1)
2(1 -1)
2(1 -1)
2(1 -1)
2(1 -1)
2(1 -1)
2(1 -1)
2(1 -1)
2(1 -1)
2(1 -1)
2(1 -1)
2(1 -1)
2(1 -1)
2(1 -1)
2(1 -1)
2(1 -1)
2(1 -1)
2(1 -1)
2(1 -1)
2(1 -1)
2(1 -1)
2(1 -1)
2(1 -1)
2(1 -1)
2(1 -1)
2(1 -1)
2(1 -1)
2(1 -1)
2(1 -1)
2(1 -1)
2(1 -1)
2(1 -1)
2(1 -1)
2(1 -1)
2(1 -1)
2(1 -1)
2(1 -1)
2(1 -1)
2(1 -1)
2(1 -1)
2(1 -1)
2(1 -1)
2(1 -1)
2(1 -1)
2(1 -1)
2(1 -1)
2(1 -1)
2(1 -1)
2(1 -1)
2(1 -1)
2(1 -1)
2(1 -1)
2(1 -1)
2(1 -1)
2(1 -1)
2(1 -1)
2(1 -1)
2(1 -1)
2(1 -1)
2(1 -1)
2(1 -1)
2(1 -1)
2(1 -1)
2(1 -1)
2(1 -1)
2(1 -1)
2(1 -1)
2(1 -1)
2(1 -1)
2(1 -1)
2(1 -1)
2(1 -1)
2(1 -1)
2(1 -1)
2(1 -1)
2(1 -1)
2(1 -1)
2(1 -1)
2(1 -1)
2(1 -1)
2(1 -1)
2(1 -1)
2(1 -1)
2(1 -1)
2(1 -1)
2(1 -1)
2(1 -1)
2(1 -1)
2(1 -1)
2(1 -1)
2(1 -1)
2(1 -1)
2(1 -1)
2(1 -1)
2(1 -1)
2(1 -1)
2(1 -1)
2(1 -1)
2(1 -1)
2(1 -1)
2(1 -1)
2(1 -1)
2(1 -1)
2(1 -1)
2(1 -1)
2(1 -1)
2(1 -1)
2(1 -1)
2(1 -1)
2(1 -1)
2(1 -1)
2(1 -1)
2(1 -1)
2(1 -1)
2(1 -1)
2(1 -1)
2(1 -1)
2(1 -1)
2(1 -1)
2(1 -1)
2(1 -1)
2(1 -1)
2(1 -1)
2(1 -1)
2(1 -1)
2(1 -1)
2(1 -1)
2(1 -1)
2(1 -1)
2(1 -1)
2(1 -1)
2(1 -1)
2(1 -1)
2(1 -1)
2(1 -1)
2(1 -1)
2(1 -1)
2(1 -1)
2(1 -1)
2(1 -1)
2(1 -1)
2(1 -1)
2(1 -1)
2(1 -1)
2(1 -1)
2(1 -1)
2(1 -1)
2(1 -1)
2(1 -1)
2(1 -1)
2(1 -1)
2(1 -1)
2(1 -1)
2(1 -1)
2(1 -1)
2(1 -1)
2(1 -1)
2(1 -1)
2(1 -1)
2(1 -1)
2(1 -1)
2(1 -1)
2(1 -1)
2(1 -1)
2(1 -1)
2(1 -1)
2(1 -1)
2(1 -1)
2(1 -1)
2(1 -1)
2(1 -1)
2(1 -1)
2(1 -1)
2(1 -1)
2(1 -1)
2(1 -1)
2(1 -1)
2(1 -1)
2(1 -1)
2(1 -1)
2(1 -1)
2(1 -1)
2(1 -1)
2(1 -1)
2(1 -1)
2(1 -1)
2(1 -1)
2(1 -1)
)

// edgeNormals

188
(
2(0 1)
2(0 2)
2(3 4)
2(3 5)
2(4 2)
2(6 7)
2(6 8)
2(7 9)
2(10 11)
2(10 8)
2(11 9)
2(1 5)
2(12 13)
2(12 14)
2(15 16)
2(15 17)
2(16 14)
2(18 19)
2(18 20)
2(19 21)
2(22 23)
2(22 20)
2(23 21)
2(13 17)
2(24 25)
2(24 26)
2(27 28)
2(27 29)
2(28 26)
2(30 31)
2(30 32)
2(31 33)
2(34 35)
2(34 32)
2(35 33)
2(25 29)
2(36 37)
2(36 38)
2(39 40)
2(39 41)
2(40 38)
2(42 43)
2(42 44)
2(43 45)
2(46 47)
2(46 44)
2(47 45)
2(37 41)
2(48 49)
2(48 50)
2(51 52)
2(51 53)
2(52 50)
2(54 55)
2(54 56)
2(55 57)
2(58 59)
2(58 56)
2(59 57)
2(49 53)
2(60 61)
2(60 62)
2(63 64)
2(63 65)
2(64 62)
2(66 67)
2(66 68)
2(67 69)
2(70 71)
2(70 68)
2(71 69)
2(61 65)
2(72 73)
2(72 74)
2(75 76)
2(75 77)
2(76 74)
2(78 79)
2(78 80)
2(79 81)
2(82 83)
2(82 80)
2(83 81)
2(73 77)
2(84 85)
2(84 86)
2(87 88)
2(87 89)
2(88 86)
2(90 91)
2(90 92)
2(91 93)
2(94 95)
2(94 92)
2(95 93)
2(85 89)
2(96 97)
2(96 98)
2(99 100)
2(99 101)
2(100 98)
2(102 103)
2(102 104)
2(103 105)
2(106 107)
2(106 104)
2(107 105)
2(97 101)
2(108 109)
2(108 110)
2(111 112)
2(111 113)
2(112 110)
2(114 115)
2(114 116)
2(115 117)
2(118 119)
2(118 116)
2(119 117)
2(109 113)
2(120 121)
2(120 122)
2(123 124)
2(123 125)
2(124 122)
2(126 127)
2(126 128)
2(127 129)
2(130 131)
2(130 128)
2(131 129)
2(121 125)
2(132 133)
2(132 134)
2(135 136)
2(135 137)
2(136 134)
2(138 139)
2(138 140)
2(139 141)
2(142 143)
2(142 140)
2(143 141)
2(133 137)
2(144 145)
2(144 146)
2(147 148)
2(147 149)
2(148 146)
2(150 151)
2(150 152)
2(151 153)
2(154 155)
2(154 152)
2(155 153)
2(145 149)
2(156 157)
2(156 158)
2(159 160)
2(159 161)
2(160 158)
2(162 163)
2(162 164)
2(163 165)
2(166 167)
2(166 164)
2(167 165)
2(157 161)
2(168 169)
2(168 170)
2(171 172)
2(171 173)
2(172 170)
2(174 175)
2(174 173)
2(175 170)
2(169 173)
2(176 177)
2(178 179)
2(178 180)
2(179 177)
2(181 182)
2(181 183)
2(182 184)
2(185 186)
2(185 183)
2(186 184)
2(187 180)
)

// featurePointNormals

124
(
3(0 1 5)
3(0 1 2)
3(0 2 4)
3(3 4 5)
3(4 2 7)
3(6 7 8)
3(7 9 11)
3(10 11 8)
3(12 13 17)
3(12 13 14)
3(12 14 16)
3(15 16 17)
3(16 14 19)
3(18 19 20)
3(19 21 23)
3(22 23 20)
3(24 25 29)
3(24 25 26)
3(24 26 28)
4(27 28 29 32)
3(28 26 31)
3(30 31 32)
3(31 33 35)
4(34 35 32 29)
4(36 37 39 41)
3(36 37 38)
4(36 38 39 40)
4(39 40 41 44)
3(40 38 43)
3(42 43 44)
3(43 45 47)
4(46 47 44 41)
3(48 49 53)
4(48 49 50 57)
3(48 50 52)
3(51 52 53)
4(52 50 55 57)
3(54 55 56)
3(55 57 59)
3(58 59 56)
3(60 61 65)
3(60 61 62)
3(60 62 64)
3(63 64 65)
3(64 62 67)
3(66 67 68)
3(67 69 71)
3(70 71 68)
3(72 73 77)
3(72 73 74)
3(72 74 76)
3(75 76 77)
3(76 74 79)
3(78 79 80)
3(79 81 83)
3(82 83 80)
3(84 85 89)
3(84 85 86)
3(84 86 88)
3(87 88 89)
3(88 86 91)
3(90 91 92)
3(91 93 95)
3(94 95 92)
3(96 97 101)
3(96 97 98)
3(96 98 100)
3(99 100 101)
3(100 98 103)
3(102 103 104)
3(103 105 107)
3(106 107 104)
3(108 109 113)
3(108 109 110)
3(108 110 112)
3(111 112 113)
3(112 110 115)
3(114 115 116)
3(115 117 119)
3(118 119 116)
3(120 121 125)
3(120 121 122)
3(120 122 124)
4(123 124 125 128)
3(124 122 127)
3(126 127 128)
3(127 129 131)
4(130 131 128 125)
3(132 133 137)
4(132 133 134 141)
3(132 134 136)
3(135 136 137)
4(136 134 139 141)
3(138 139 140)
3(139 141 143)
3(142 143 140)
3(144 145 149)
3(144 145 146)
3(144 146 148)
3(147 148 149)
3(148 146 151)
3(150 151 152)
3(151 153 155)
3(154 155 152)
3(156 157 161)
4(156 157 158 165)
3(156 158 160)
3(159 160 161)
4(160 158 163 165)
3(162 163 164)
3(163 165 167)
3(166 167 164)
3(168 169 173)
3(168 169 170)
3(168 170 172)
3(171 172 173)
3(172 170 175)
3(174 175 173)
3(176 177 179)
4(178 179 180 183)
4(179 177 182 184)
3(181 182 183)
3(182 184 186)
4(185 186 183 180)
)

// featurePointEdges

124
(
3(3 11 0)
3(0 10 1)
3(2 4 1)
3(2 6 3)
3(5 7 4)
3(5 9 6)
3(8 10 7)
3(8 11 9)
3(15 23 12)
3(12 22 13)
3(14 16 13)
3(14 18 15)
3(17 19 16)
3(17 21 18)
3(20 22 19)
3(20 23 21)
3(27 35 24)
3(24 34 25)
3(26 28 25)
3(26 30 27)
3(29 31 28)
3(29 33 30)
3(32 34 31)
3(32 35 33)
3(39 47 36)
3(36 46 37)
3(38 40 37)
3(38 42 39)
3(41 43 40)
3(41 45 42)
3(44 46 43)
3(44 47 45)
3(51 59 48)
3(48 58 49)
3(50 52 49)
3(50 54 51)
3(53 55 52)
3(53 57 54)
3(56 58 55)
3(56 59 57)
3(63 71 60)
3(60 70 61)
3(62 64 61)
3(62 66 63)
3(65 67 64)
3(65 69 66)
3(68 70 67)
3(68 71 69)
3(75 83 72)
3(72 82 73)
3(74 76 73)
3(74 78 75)
3(77 79 76)
3(77 81 78)
3(80 82 79)
3(80 83 81)
3(87 95 84)
3(84 94 85)
3(86 88 85)
3(86 90 87)
3(89 91 88)
3(89 93 90)
3(92 94 91)
3(92 95 93)
3(99 107 96)
3(96 106 97)
3(98 100 97)
3(98 102 99)
3(101 103 100)
3(101 105 102)
3(104 106 103)
3(104 107 105)
3(111 119 108)
3(108 118 109)
3(110 112 109)
3(110 114 111)
3(113 115 112)
3(113 117 114)
3(116 118 115)
3(116 119 117)
3(123 131 120)
3(120 130 121)
3(122 124 121)
3(122 126 123)
3(125 127 124)
3(125 129 126)
3(128 130 127)
3(128 131 129)
3(135 143 132)
3(132 142 133)
3(134 136 133)
3(134 138 135)
3(137 139 136)
3(137 141 138)
3(140 142 139)
3(140 143 141)
3(147 155 144)
3(144 154 145)
3(146 148 145)
3(146 150 147)
3(149 151 148)
3(149 153 150)
3(152 154 151)
3(152 155 153)
3(159 167 156)
3(156 166 157)
3(158 160 157)
3(158 162 159)
3(161 163 160)
3(161 165 162)
3(164 166 163)
3(164 167 165)
3(171 176 168)
3(168 175 169)
3(170 172 169)
3(170 174 171)
3(173 175 172)
3(173 176 174)
3(178 180 177)
3(178 182 179)
3(181 183 180)
3(181 185 182)
3(184 186 183)
3(184 187 185)
)

// regionEdges
0()


// ************************************************************************* //
