/*--------------------------------*- C++ -*----------------------------------*\
| =========                 |                                                 |
| \\      /  F ield         | OpenFOAM: The Open Source CFD Toolbox           |
|  \\    /   O peration     | Version:  2206                                  |
|   \\  /    A nd           | Website:  www.openfoam.com                      |
|    \\/     M anipulation  |                                                 |
\*---------------------------------------------------------------------------*/
FoamFile
{
    version     2.0;
    format      ascii;
    arch        "LSB;label=64;scalar=64";
    class       featureEdgeMesh;
    location    "constant/triSurface";
    object      GeoTank.eMesh;
}
// * * * * * * * * * * * * * * * * * * * * * * * * * * * * * * * * * * * * * //


// points:

104
(
(1.72233 -16.1117 157.793)
(0 -16.2035 157.793)
(3.42514 -15.8373 157.793)
(5.08914 -15.3836 157.793)
(6.69548 -14.7555 157.793)
(8.22596 -13.9602 157.793)
(9.66323 -13.0067 157.793)
(10.991 -11.9059 157.793)
(12.1943 -10.6702 157.793)
(13.2594 -9.31356 157.793)
(14.1742 -7.85142 157.793)
(14.9285 -6.30031 157.793)
(15.5136 -4.67782 157.793)
(15.9229 -3.00232 157.793)
(16.1518 -1.29281 157.793)
(16.1977 0.431345 157.793)
(16.0601 2.15062 157.793)
(15.7406 3.84552 157.793)
(15.2426 5.49685 157.793)
(14.572 7.08591 157.793)
(13.7363 8.59467 157.793)
(12.7449 10.0061 157.793)
(11.6091 11.3041 157.793)
(10.3418 12.474 157.793)
(8.95729 13.5026 157.793)
(7.47131 14.3782 157.793)
(5.90067 15.0909 157.793)
(4.26318 15.6326 157.793)
(2.57738 15.9972 157.793)
(0.862385 16.1805 157.793)
(-0.862385 16.1805 157.793)
(-2.57738 15.9972 157.793)
(-4.26318 15.6326 157.793)
(-5.90067 15.0909 157.793)
(-7.47131 14.3782 157.793)
(-8.95729 13.5026 157.793)
(-10.3418 12.474 157.793)
(-11.6091 11.3041 157.793)
(-12.7449 10.0061 157.793)
(-13.7363 8.59467 157.793)
(-14.572 7.08591 157.793)
(-15.2426 5.49685 157.793)
(-15.7406 3.84552 157.793)
(-16.0601 2.15062 157.793)
(-16.1977 0.431345 157.793)
(-16.1518 -1.29281 157.793)
(-15.9229 -3.00232 157.793)
(-15.5136 -4.67782 157.793)
(-14.9285 -6.30031 157.793)
(-14.1742 -7.85142 157.793)
(-13.2594 -9.31356 157.793)
(-12.1943 -10.6702 157.793)
(-10.991 -11.9059 157.793)
(-9.66323 -13.0067 157.793)
(-8.22596 -13.9602 157.793)
(-6.69548 -14.7555 157.793)
(-5.08914 -15.3836 157.793)
(-3.42514 -15.8373 157.793)
(-1.72233 -16.1117 157.793)
(0 -9.35383 -175.459)
(-1.3018 -9.2628 -175.459)
(-0.65249 9.33105 -175.459)
(0.65249 9.33105 -175.459)
(1.3018 -9.2628 -175.459)
(1.94477 9.14943 -175.459)
(2.57827 -8.99148 -175.459)
(3.1992 8.78973 -175.459)
(3.80455 -8.54515 -175.459)
(4.39136 8.25894 -175.459)
(4.95678 -7.9325 -175.459)
(5.49805 7.56741 -175.459)
(6.01253 -7.16545 -175.459)
(6.49772 6.72858 -175.459)
(6.95125 -6.25894 -175.459)
(7.37092 5.75879 -175.459)
(7.75468 -5.2306 -175.459)
(8.10066 4.67692 -175.459)
(8.40717 -4.10045 -175.459)
(8.67272 3.50401 -175.459)
(8.89602 -2.89049 -175.459)
(9.07598 2.2629 -175.459)
(9.21173 -1.62428 -175.459)
(9.30259 0.977742 -175.459)
(9.34813 -0.326444 -175.459)
(-1.94477 9.14943 -175.459)
(-2.57827 -8.99148 -175.459)
(-3.1992 8.78973 -175.459)
(-3.80455 -8.54515 -175.459)
(-4.39136 8.25894 -175.459)
(-4.95678 -7.9325 -175.459)
(-5.49805 7.56741 -175.459)
(-6.01253 -7.16545 -175.459)
(-6.49772 6.72858 -175.459)
(-6.95125 -6.25894 -175.459)
(-7.37092 5.75879 -175.459)
(-7.75468 -5.2306 -175.459)
(-8.10066 4.67692 -175.459)
(-8.40717 -4.10045 -175.459)
(-8.67272 3.50401 -175.459)
(-8.89602 -2.89049 -175.459)
(-9.07598 2.2629 -175.459)
(-9.21173 -1.62428 -175.459)
(-9.30259 0.977742 -175.459)
(-9.34813 -0.326444 -175.459)
)


// edges:

104
(
(0 1)
(2 0)
(3 2)
(4 3)
(5 4)
(6 5)
(7 6)
(8 7)
(9 8)
(10 9)
(11 10)
(12 11)
(13 12)
(14 13)
(15 14)
(16 15)
(17 16)
(18 17)
(19 18)
(20 19)
(21 20)
(22 21)
(23 22)
(24 23)
(25 24)
(26 25)
(27 26)
(28 27)
(29 28)
(30 29)
(31 30)
(32 31)
(33 32)
(34 33)
(35 34)
(36 35)
(37 36)
(38 37)
(39 38)
(40 39)
(41 40)
(42 41)
(43 42)
(44 43)
(45 44)
(46 45)
(47 46)
(48 47)
(49 48)
(50 49)
(51 50)
(52 51)
(53 52)
(54 53)
(55 54)
(56 55)
(57 56)
(58 57)
(1 58)
(59 60)
(61 62)
(63 59)
(62 64)
(65 63)
(64 66)
(67 65)
(66 68)
(69 67)
(68 70)
(71 69)
(70 72)
(73 71)
(72 74)
(75 73)
(74 76)
(77 75)
(76 78)
(79 77)
(78 80)
(81 79)
(80 82)
(83 81)
(82 83)
(84 61)
(60 85)
(86 84)
(85 87)
(88 86)
(87 89)
(90 88)
(89 91)
(92 90)
(91 93)
(94 92)
(93 95)
(96 94)
(95 97)
(98 96)
(97 99)
(100 98)
(99 101)
(102 100)
(103 102)
(101 103)
)

// * * * * * * * * * * * * * * * * * * * * * * * * * * * * * * * * * * * * * //


// ************************************************************************* //
