/*--------------------------------*- C++ -*----------------------------------*\
  =========                 |
  \\      /  F ield         | OpenFOAM: The Open Source CFD Toolbox
   \\    /   O peration     | Website:  https://openfoam.org
    \\  /    A nd           | Version:  6
     \\/     M anipulation  |
\*---------------------------------------------------------------------------*/
FoamFile
{
    version     2.0;
    format      ascii;
    class       featureEdgeMesh;
    location    "constant/triSurface";
    object      airfoil.eMesh;
}
// * * * * * * * * * * * * * * * * * * * * * * * * * * * * * * * * * * * * * //


// points:

114
(
(-7.7e-05 -0.001875 -0.2)
(-7.7e-05 -0.001875 0.2)
(0.054879 0.024564 -0.2)
(0.054879 0.024564 0.2)
(0.077019 0.073255 -0.2)
(0.077019 0.073255 0.2)
(0.105562 0.027345 -0.2)
(0.105562 0.027345 0.2)
(0.972678 -0.170169 -0.2)
(0.972678 -0.170169 0.2)
(0.972247 -0.171058 -0.2)
(0.972247 -0.171058 0.2)
(0.002011 0.004093 -0.2)
(0.002011 0.004093 0.2)
(0.008899 0.010332 -0.2)
(0.008899 0.010332 0.2)
(0.020116 0.016071 -0.2)
(0.020116 0.016071 0.2)
(0.035473 0.020928 -0.2)
(0.035473 0.020928 0.2)
(0.003214 -0.008091 -0.2)
(0.003214 -0.008091 0.2)
(0.011635 -0.0151 -0.2)
(0.011635 -0.0151 0.2)
(0.024904 -0.022253 -0.2)
(0.024904 -0.022253 0.2)
(0.043189 -0.029356 -0.2)
(0.043189 -0.029356 0.2)
(0.066495 -0.036481 -0.2)
(0.066495 -0.036481 0.2)
(0.094581 -0.043687 -0.2)
(0.094581 -0.043687 0.2)
(0.127155 -0.050944 -0.2)
(0.127155 -0.050944 0.2)
(0.16388 -0.058222 -0.2)
(0.16388 -0.058222 0.2)
(0.204413 -0.065491 -0.2)
(0.204413 -0.065491 0.2)
(0.24833 -0.072747 -0.2)
(0.24833 -0.072747 0.2)
(0.295154 -0.079988 -0.2)
(0.295154 -0.079988 0.2)
(0.136571 0.026294 -0.2)
(0.136571 0.026294 0.2)
(0.171112 0.023565 -0.2)
(0.171112 0.023565 0.2)
(0.208907 0.019195 -0.2)
(0.208907 0.019195 0.2)
(0.249671 0.013236 -0.2)
(0.249671 0.013236 0.2)
(0.293056 0.005779 -0.2)
(0.293056 0.005779 0.2)
(0.338666 -0.003045 -0.2)
(0.338666 -0.003045 0.2)
(0.344349 -0.0872 -0.2)
(0.344349 -0.0872 0.2)
(0.386092 -0.013093 -0.2)
(0.386092 -0.013093 0.2)
(0.39534 -0.094364 -0.2)
(0.39534 -0.094364 0.2)
(0.434899 -0.024177 -0.2)
(0.434899 -0.024177 0.2)
(0.447557 -0.101428 -0.2)
(0.447557 -0.101428 0.2)
(0.484592 -0.036107 -0.2)
(0.484592 -0.036107 0.2)
(0.500399 -0.108339 -0.2)
(0.500399 -0.108339 0.2)
(0.534666 -0.048643 -0.2)
(0.534666 -0.048643 0.2)
(0.553267 -0.115052 -0.2)
(0.553267 -0.115052 0.2)
(0.605581 -0.121504 -0.2)
(0.605581 -0.121504 0.2)
(0.584596 -0.06159 -0.2)
(0.584596 -0.06159 0.2)
(0.633826 -0.074708 -0.2)
(0.633826 -0.074708 0.2)
(0.65679 -0.12766 -0.2)
(0.65679 -0.12766 0.2)
(0.681849 -0.087765 -0.2)
(0.681849 -0.087765 0.2)
(0.728096 -0.10052 -0.2)
(0.728096 -0.10052 0.2)
(0.706369 -0.133559 -0.2)
(0.706369 -0.133559 0.2)
(0.772003 -0.11273 -0.2)
(0.772003 -0.11273 0.2)
(0.753706 -0.139275 -0.2)
(0.753706 -0.139276 0.2)
(0.81302 -0.124227 -0.2)
(0.81302 -0.124227 0.2)
(0.798156 -0.144829 -0.2)
(0.798156 -0.144829 0.2)
(0.850632 -0.134819 0.2)
(0.850632 -0.134819 -0.2)
(0.839078 -0.150186 -0.2)
(0.839078 -0.150186 0.2)
(0.884366 -0.144372 -0.2)
(0.884366 -0.144372 0.2)
(0.875913 -0.15528 -0.2)
(0.875913 -0.15528 0.2)
(0.913747 -0.152751 -0.2)
(0.913747 -0.152751 0.2)
(0.908105 -0.160042 -0.2)
(0.908105 -0.160042 0.2)
(0.938418 -0.159914 -0.2)
(0.938418 -0.159914 0.2)
(0.935185 -0.16437 -0.2)
(0.935185 -0.16437 0.2)
(0.958116 -0.165794 -0.2)
(0.958116 -0.165794 0.2)
(0.956682 -0.16811 -0.2)
(0.956682 -0.16811 0.2)
)


// edges:

120
(
(2 3)
(6 7)
(1 0)
(4 5)
(8 9)
(11 10)
(0 12)
(13 1)
(12 14)
(15 13)
(14 16)
(17 15)
(16 18)
(19 17)
(18 2)
(3 19)
(2 4)
(5 3)
(4 6)
(7 5)
(20 0)
(1 21)
(22 20)
(21 23)
(24 22)
(23 25)
(26 24)
(25 27)
(28 26)
(27 29)
(30 28)
(29 31)
(32 30)
(31 33)
(34 32)
(33 35)
(36 34)
(35 37)
(38 36)
(37 39)
(40 38)
(39 41)
(6 42)
(43 7)
(42 44)
(45 43)
(44 46)
(47 45)
(46 48)
(49 47)
(48 50)
(51 49)
(50 52)
(53 51)
(54 40)
(41 55)
(52 56)
(57 53)
(58 54)
(55 59)
(56 60)
(61 57)
(62 58)
(59 63)
(60 64)
(65 61)
(66 62)
(63 67)
(64 68)
(69 65)
(70 66)
(67 71)
(72 70)
(71 73)
(68 74)
(75 69)
(74 76)
(77 75)
(78 72)
(73 79)
(76 80)
(81 77)
(80 82)
(83 81)
(84 78)
(79 85)
(82 86)
(87 83)
(88 84)
(85 89)
(86 90)
(91 87)
(92 88)
(89 93)
(94 91)
(90 95)
(96 92)
(93 97)
(95 98)
(99 94)
(100 96)
(97 101)
(98 102)
(103 99)
(104 100)
(101 105)
(102 106)
(107 103)
(108 104)
(105 109)
(106 110)
(111 107)
(112 108)
(109 113)
(110 8)
(9 111)
(10 112)
(113 11)
(8 10)
(11 9)
)

// * * * * * * * * * * * * * * * * * * * * * * * * * * * * * * * * * * * * * //


// ************************************************************************* //
