/*--------------------------------*- C++ -*----------------------------------*\
| =========                 |                                                 |
| \\      /  F ield         | OpenFOAM: The Open Source CFD Toolbox           |
|  \\    /   O peration     | Version:  v2212                                 |
|   \\  /    A nd           | Website:  www.openfoam.com                      |
|    \\/     M anipulation  |                                                 |
\*---------------------------------------------------------------------------*/
FoamFile
{
    version     2.0;
    format      ascii;
    class       dictionary;
    object      setFieldsDict;
}
// * * * * * * * * * * * * * * * * * * * * * * * * * * * * * * * * * * * * * //

defaultFieldValues
(
    volScalarFieldValue alpha.fluid    1
    volScalarFieldValue alpha.Gch4     0
    volScalarFieldValue alpha.Gh2      0
    volScalarFieldValue alpha.Gco2     0
);

regions
(
    sphereToCell
    {
        centre (0.5 0.3 -0.005);
        radius 0.1;
        fieldValues
        (
            volScalarFieldValue alpha.fluid    0
            volScalarFieldValue alpha.Gch4     1.0
            volScalarFieldValue alpha.Gh2      0.0
            volScalarFieldValue alpha.Gco2     0.0
        );
    }

    // boxToCell
    // {
    //     box (0 3.5 -1) (0.33 4.5 1);
    //     fieldValues
    //     (
    //         volScalarFieldValue alpha.fluid    0.0
    //         volScalarFieldValue alpha.Gch4     0.2; // 1.0
    //         volScalarFieldValue alpha.Gh2      0.4; // 0.0
    //         volScalarFieldValue alpha.Gco2     0.4; // 0.0
    //     );
    // }

    // boxToCell
    // {
    //     box (0.33 3.5 -1) (0.67 4.5 1);
    //     fieldValues
    //     (
    //         volScalarFieldValue alpha.fluid    0.0
    //         volScalarFieldValue alpha.Gch4     0.2; // 0.0
    //         volScalarFieldValue alpha.Gh2      0.4; // 1.0
    //         volScalarFieldValue alpha.Gco2     0.4; // 0.0
    //     );
    // }

    // boxToCell
    // {
    //     box (0.67 3.5 -1) (1 4.5 1);
    //     fieldValues
    //     (
    //         volScalarFieldValue alpha.fluid    0.0
    //         volScalarFieldValue alpha.Gch4     0.2; // 0.0
    //         volScalarFieldValue alpha.Gh2      0.4; // 0.0
    //         volScalarFieldValue alpha.Gco2     0.4; // 1.0
    //     );
    // }
);


// ************************************************************************* //
