/*--------------------------------*- C++ -*----------------------------------*\
| =========                 |                                                 |
| \\      /  F ield         | OpenFOAM: The Open Source CFD Toolbox           |
|  \\    /   O peration     | Version:  v2206                                 |
|   \\  /    A nd           | Website:  www.openfoam.com                      |
|    \\/     M anipulation  |                                                 |
\*---------------------------------------------------------------------------*/
FoamFile
{
    version     2.0;
    format      ascii;
    class       dictionary;
    object      controlDict;
}
// * * * * * * * * * * * * * * * * * * * * * * * * * * * * * * * * * * * * * //

application     ADMFoam;

startFrom       startTime;

startTime       0;

stopAt          endTime;

endTime         10;
writeInterval   1;

// endTime         3000;
// writeInterval   100;

deltaT          1;

writeControl    adjustable;

// writeInterval   100;

purgeWrite      0;

writeFormat     ascii; // binary;

writePrecision  6;

writeCompression off;

timeFormat      general;

timePrecision   6;

adjustTimeStep  true;

runTimeModifiable true;

maxCo           0.8;

maxDeltaT       5;

functions {}


// ************************************************************************* //
