/*--------------------------------*- C++ -*----------------------------------*\
| =========                 |                                                 |
| \\      /  F ield         | OpenFOAM: The Open Source CFD Toolbox           |
|  \\    /   O peration     | Version:  v1912                                 |
|   \\  /    A nd           | Website:  www.openfoam.com                      |
|    \\/     M anipulation  |                                                 |
\*---------------------------------------------------------------------------*/
FoamFile
{
    version     2.0;
    format      ascii;
    class       dictionary;
    object      blockMeshDict;
}
// * * * * * * * * * * * * * * * * * * * * * * * * * * * * * * * * * * * * * //

convertToMeters 1;

vertices
(
    (0      0      0) // v0
    (6282   0      0) // v1 
    (6282   1000   0) // v2
    (0      1000   0) // v3

    (0      0      3141) // v4
    (6282   0      3141) // v5
    (6282   1000   3141) // v6
    (0      1000   3141) // v7
);

blocks
(
    hex (0 1 2 3 4 5 6 7)
    (64 64 64)
    edgeGrading (1 1 1 1 1 1 1 1 1 1 1 1)
);

edges
(
);

boundary
(
    inlet
    {
        type cyclic;
        neighbourPatch outlet;
        faces
        (
            (0 3 7 4)
        );
    }
    outlet
    {
        type cyclic;
        neighbourPatch inlet;
        faces
        (
            (1 2 6 5)
        );
    }
    upperAtm
    {
        type patch;
        faces
        (
            (3 7 6 2)
        );
    }
    ground
    {
        type wall;
        faces
        (
            (0 4 5 1)
        );
    }
    frontAtm
    {
        type cyclic;
        neighbourPatch backAtm;
        faces
        (
            (4 5 6 7)
        );
    }
    backAtm
    {
        type cyclic;
        neighbourPatch frontAtm;
        faces
        (
            (0 1 2 3)
        );
    }
);

// ************************************************************************* //
