/*--------------------------------*- C++ -*----------------------------------*\
| =========                 |                                                 |
| \\      /  F ield         | OpenFOAM: The Open Source CFD Toolbox           |
|  \\    /   O peration     | Version:  v1912                                 |
|   \\  /    A nd           | Website:  www.openfoam.com                      |
|    \\/     M anipulation  |                                                 |
\*---------------------------------------------------------------------------*/
FoamFile
{
    version     2.0;
    format      ascii;
    class       dictionary;
    location    "system";
    object      controlDict;
}
// * * * * * * * * * * * * * * * * * * * * * * * * * * * * * * * * * * * * * //

application     pimpleFoam;

startFrom       latestTime;

startTime       0;

stopAt          endTime; 

endTime         2e4;

deltaT          1;

writeControl    runTime;

writeInterval   1e4;

purgeWrite      0;

writeFormat     ascii;

writePrecision  6;

writeCompression off;

timeFormat      general;

timePrecision   6;

runTimeModifiable true;

adjustTimeStep  yes;

maxCo           1;

functions
{
	#includeFunc  R;

	fieldAverage
    {
        type            	fieldAverage;
        libs            	("libfieldFunctionObjects.so");
        restartOnOutput     true;
        fields
        (
            U
            {
                mean 		true;
                prime2Mean	true;
                base		time;
            }
            nut
            {
                mean        true;
                prime2Mean  false;
                base        time;
            }
        );
        writeControl		runTime;
        writeInterval		2e4;
        timeStart			1e4; //#eval #{ 0.1 * ${/endTime} #};
    }

	turbulenceFields1
	{
	    type                turbulenceFields;
	    libs                ("libfieldFunctionObjects.so");
        restartOnOutput     true;
	    field               L;
        writeControl        runTime;
        writeInterval       2e4;
        timeStart           1e4; //#eval #{ 0.1 * ${/endTime} #};
	}
}



// ************************************************************************* //
