/*--------------------------------*- C++ -*----------------------------------*\
  =========                 |
  \\      /  F ield         | OpenFOAM: The Open Source CFD Toolbox
   \\    /   O peration     | Website:  https://openfoam.org
    \\  /    A nd           | Version:  6
     \\/     M anipulation  |
\*---------------------------------------------------------------------------*/
FoamFile
{
    version     2.0;
    format      ascii;
    class       extendedFeatureEdgeMesh;
    location    "constant/extendedFeatureEdgeMesh";
    object      airfoil.extendedFeatureEdgeMesh;
}
// * * * * * * * * * * * * * * * * * * * * * * * * * * * * * * * * * * * * * //

// points

116
(
(0.000411 -0.001831 -0.2)
(0.000411 -0.001831 0.2)
(0.094888 0.053735 -0.2)
(0.094888 0.053734 0.2)
(0.108948 0.107926 -0.2)
(0.108948 0.107926 0.2)
(0.14395 0.06423 -0.2)
(0.14395 0.06423 0.2)
(0.983577 0.087377 -0.2)
(0.983577 0.087377 0.2)
(0.983391 0.086407 -0.2)
(0.983391 0.086407 0.2)
(0.000883 0.004474 -0.2)
(0.000883 0.004474 0.2)
(0.005198 -0.006983 -0.2)
(0.005198 -0.006984 0.2)
(0.015146 -0.011574 -0.2)
(0.015146 -0.011574 0.2)
(0.029815 -0.015049 -0.2)
(0.029815 -0.015049 0.2)
(0.049315 -0.017177 -0.2)
(0.049315 -0.017177 0.2)
(0.073672 -0.018028 -0.2)
(0.073672 -0.018028 0.2)
(0.102665 -0.01772 -0.2)
(0.102665 -0.01772 0.2)
(0.136008 -0.016298 -0.2)
(0.136008 -0.016298 0.2)
(0.173364 -0.013823 -0.2)
(0.173364 -0.013823 0.2)
(0.005922 0.012283 -0.2)
(0.005922 0.012283 0.2)
(0.015271 0.02073 -0.2)
(0.015271 0.02073 0.2)
(0.028848 0.029396 -0.2)
(0.028848 0.029396 0.2)
(0.046652 0.03793 -0.2)
(0.046652 0.03793 0.2)
(0.068684 0.046092 -0.2)
(0.068684 0.046092 0.2)
(0.159182 0.067049 -0.2)
(0.159182 0.067049 0.2)
(0.196821 0.07261 -0.2)
(0.196821 0.07261 0.2)
(0.237738 0.077405 -0.2)
(0.237738 0.077405 0.2)
(0.281574 0.081431 -0.2)
(0.281574 0.081431 0.2)
(0.327915 0.084712 -0.2)
(0.327915 0.084712 0.2)
(0.376325 0.087281 -0.2)
(0.376325 0.087281 0.2)
(0.426337 0.089207 -0.2)
(0.426337 0.089207 0.2)
(0.214398 -0.010353 -0.2)
(0.214398 -0.010353 0.2)
(0.258697 -0.005996 -0.2)
(0.258697 -0.005996 0.2)
(0.3058 -0.000871 -0.2)
(0.3058 -0.000871 0.2)
(0.355185 0.004895 -0.2)
(0.355185 0.004895 0.2)
(0.406292 0.011173 -0.2)
(0.406292 0.011173 0.2)
(0.458558 0.017864 -0.2)
(0.458558 0.017864 0.2)
(0.477425 0.090545 -0.2)
(0.477425 0.090545 0.2)
(0.511389 0.024865 -0.2)
(0.511389 0.024865 0.2)
(0.529037 0.091396 -0.2)
(0.529037 0.091396 0.2)
(0.564192 0.032065 -0.2)
(0.564192 0.032065 0.2)
(0.580617 0.091814 -0.2)
(0.580617 0.091814 0.2)
(0.616394 0.039372 -0.2)
(0.616394 0.039372 0.2)
(0.631565 0.091884 -0.2)
(0.631565 0.091884 0.2)
(0.667451 0.04668 -0.2)
(0.667451 0.04668 0.2)
(0.68133 0.091701 -0.2)
(0.68133 0.091701 0.2)
(0.716868 0.053814 -0.2)
(0.716868 0.053814 0.2)
(0.729303 0.091351 -0.2)
(0.729303 0.091351 0.2)
(0.764071 0.060544 -0.2)
(0.764071 0.060544 0.2)
(0.774874 0.090921 -0.2)
(0.774874 0.090921 0.2)
(0.808444 0.066684 -0.2)
(0.808444 0.066684 0.2)
(0.817469 0.090431 -0.2)
(0.817469 0.090431 0.2)
(0.849358 0.072101 -0.2)
(0.849358 0.072101 0.2)
(0.856541 0.089935 0.2)
(0.856541 0.089935 -0.2)
(0.891598 0.089438 -0.2)
(0.891598 0.089438 0.2)
(0.886256 0.076714 -0.2)
(0.886256 0.076714 0.2)
(0.922147 0.088949 -0.2)
(0.922147 0.088949 0.2)
(0.918584 0.080446 -0.2)
(0.918584 0.080446 0.2)
(0.947831 0.088415 -0.2)
(0.947831 0.088415 0.2)
(0.945862 0.083274 -0.2)
(0.945862 0.083274 0.2)
(0.96838 0.087834 -0.2)
(0.96838 0.087834 0.2)
(0.967594 0.085226 -0.2)
(0.967594 0.085226 0.2)
)

// edges

122
(
(2 3)
(6 7)
(1 0)
(4 5)
(8 9)
(11 10)
(0 12)
(13 1)
(14 0)
(1 15)
(16 14)
(15 17)
(18 16)
(17 19)
(20 18)
(19 21)
(22 20)
(21 23)
(24 22)
(23 25)
(26 24)
(25 27)
(28 26)
(27 29)
(12 30)
(31 13)
(30 32)
(33 31)
(32 34)
(35 33)
(34 36)
(37 35)
(36 38)
(39 37)
(38 2)
(3 39)
(2 4)
(5 3)
(4 6)
(7 5)
(6 40)
(41 7)
(40 42)
(43 41)
(42 44)
(45 43)
(44 46)
(47 45)
(46 48)
(49 47)
(48 50)
(51 49)
(50 52)
(53 51)
(54 28)
(29 55)
(56 54)
(55 57)
(58 56)
(57 59)
(60 58)
(59 61)
(62 60)
(61 63)
(64 62)
(63 65)
(52 66)
(67 53)
(68 64)
(65 69)
(66 70)
(71 67)
(72 68)
(69 73)
(70 74)
(75 71)
(76 72)
(73 77)
(74 78)
(79 75)
(80 76)
(77 81)
(78 82)
(83 79)
(84 80)
(81 85)
(82 86)
(87 83)
(88 84)
(85 89)
(86 90)
(91 87)
(92 88)
(89 93)
(90 94)
(95 91)
(96 92)
(93 97)
(98 95)
(94 99)
(99 100)
(101 98)
(102 96)
(97 103)
(100 104)
(105 101)
(106 102)
(103 107)
(104 108)
(109 105)
(110 106)
(107 111)
(108 112)
(113 109)
(114 110)
(111 115)
(112 8)
(9 113)
(10 114)
(115 11)
(8 10)
(11 9)
)

// concaveStart mixedStart nonFeatureStart
0 0 12
// internalStart flatStart openStart multipleStart
2 6 6 122
// normals

116
(
(0.9972096217 -0.07465233013 0)
(0.9972096217 -0.07465233013 0)
(0.73258075 0.680680134 0)
(0.7326466215 0.6806092329 1.701523082e-06)
(0.4190292374 0.9079727409 2.269931852e-06)
(0.4189539872 0.9080074651 -0)
(0.2305143188 0.9730689332 0)
(0.2305143188 0.9730689332 -0)
(0.10848415 0.9940981789 0)
(0.10848415 0.9940981789 -0)
(0.03491731593 0.9993902046 0)
(0.03491731593 0.9993902046 -0)
(-0.0106226545 0.999943578 0)
(-0.0106226545 0.999943578 0)
(-0.04260890082 0.9990918284 0)
(-0.04260890082 0.9990918284 0)
(-0.06610947719 0.9978123757 0)
(-0.06610947719 0.9978123757 0)
(0.8402507906 -0.5421979426 0)
(0.8402507906 -0.5421979426 0)
(0.6704060944 -0.7419943858 0)
(0.6704060944 -0.7419943858 0)
(0.5380279444 -0.8429270022 0)
(0.5380279444 -0.8429270022 0)
(0.4322403187 -0.9017584526 0)
(0.4322403187 -0.9017584526 0)
(0.34738921 -0.9377210335 0)
(0.34738921 -0.9377210335 0)
(0.2800056272 -0.9599983587 -2.399995897e-06)
(0.2799718635 -0.960008206 0)
(0.9679514011 -0.2511375819 0)
(0.9679525277 -0.2511332399 -6.278330999e-07)
(-0.7804748306 -0.625187203 0)
(-0.7804748306 -0.625187203 0)
(0.1819806114 -0.9833021189 0)
(0.1819806114 -0.9833021189 0)
(0.1461590634 -0.9892611021 0)
(0.1461590634 -0.9892611021 0)
(0.1163919667 -0.9932033579 0)
(0.1163919667 -0.9932033579 0)
(0.09145740919 -0.9958089889 0)
(0.09145740919 -0.9958089889 0)
(0.07062444198 -0.9975029765 0)
(0.07062444198 -0.9975029765 0)
(0.05299298201 -0.9985948848 0)
(0.05299298201 -0.9985948848 0)
(0.03848223191 -0.9992592846 0)
(0.03848223191 -0.9992592846 0)
(-0.08426327037 0.9964435264 0)
(-0.08426327037 0.9964435264 0)
(-0.09788206904 0.9951980208 0)
(-0.09788206904 0.9951980208 0)
(-0.1081657428 0.9941328745 0)
(-0.1081657428 0.9941328745 0)
(-0.1159683362 0.9932529109 0)
(-0.1159683362 0.9932529109 0)
(-0.1219238599 0.9925394563 0)
(-0.1219238599 0.9925394563 0)
(-0.1269819113 0.9919050329 0)
(-0.1269819113 0.9919050329 0)
(0.02618112579 -0.9996572156 0)
(0.02618112579 -0.9996572156 0)
(-0.1313684507 0.9913336119 0)
(-0.1313684507 0.9913336119 0)
(0.01648617267 -0.9998640938 0)
(0.01648617267 -0.9998640938 0)
(-0.1351056684 0.9908311957 0)
(-0.1351056684 0.9908311957 0)
(0.008103650154 -0.9999671649 0)
(0.008103650154 -0.9999671649 0)
(-0.1386240279 0.9903450807 0)
(-0.1386240279 0.9903450807 0)
(0.001373948613 -0.9999990561 0)
(0.001373948613 -0.9999990561 0)
(-0.1416900736 0.9899110683 0)
(-0.1416900736 0.9899110683 0)
(-0.003677258369 -0.9999932389 0)
(-0.003677258369 -0.9999932389 0)
(-0.1428820683 0.9897397206 0)
(-0.1428820683 0.9897397206 0)
(-0.007295576375 -0.9999733869 0)
(-0.007295576375 -0.9999733869 0)
(-0.1411482824 0.9899884658 0)
(-0.1411482824 0.9899884658 0)
(-0.009435405385 -0.9999554856 0)
(-0.009435405385 -0.9999554856 0)
(-0.1370664545 0.9905618542 0)
(-0.1370664545 0.9905618542 0)
(-0.01150293652 -0.999933839 0)
(-0.01150293652 -0.999933839 0)
(-0.1312542436 0.9913487396 0)
(-0.1312542436 0.9913487396 0)
(-0.01269348995 -0.9999194344 0)
(-0.01269348995 -0.9999194344 0)
(-0.01417548743 -0.9998995227 0)
(-0.01417548743 -0.9998995227 0)
(-0.1240545936 0.9922753941 0)
(-0.1240545936 0.9922753941 0)
(-0.01600502029 -0.9998719115 0)
(-0.01600502029 -0.9998719115 0)
(-0.1146800926 0.9934024745 0)
(-0.1146800926 0.9934024745 0)
(-0.02078666176 -0.999783934 0)
(-0.02078666176 -0.999783934 0)
(-0.1031205931 0.9946688611 0)
(-0.1031205931 0.9946688611 0)
(-0.02826258747 -0.9996005333 0)
(-0.02826258747 -0.9996005333 0)
(-0.08946130421 0.9959902987 0)
(-0.08946130421 0.9959902987 0)
(-0.03005813684 -0.9995481521 0)
(-0.03005813684 -0.9995481521 0)
(-0.07455297471 0.9972170546 0)
(-0.07455297471 0.9972170546 0)
(-0.98210741 0.1883216271 0)
(-0.98210741 0.1883216271 0)
)

// normal volume types

116
(
0
0
0
0
0
0
0
0
0
0
0
0
0
0
0
0
0
0
0
0
0
0
0
0
0
0
0
0
0
0
0
0
0
0
0
0
0
0
0
0
0
0
0
0
0
0
0
0
0
0
0
0
0
0
0
0
0
0
0
0
0
0
0
0
0
0
0
0
0
0
0
0
0
0
0
0
0
0
0
0
0
0
0
0
0
0
0
0
0
0
0
0
0
0
0
0
0
0
0
0
0
0
0
0
0
0
0
0
0
0
0
0
0
0
0
0
)

// normalDirections

122
(
2(1 -1)
2(1 -1)
2(1 -1)
2(1 -1)
2(1 -1)
2(1 -1)
1(1)
1(1)
1(1)
1(1)
1(1)
1(1)
1(1)
1(1)
1(1)
1(1)
1(1)
1(1)
1(1)
1(1)
1(1)
1(1)
1(1)
1(1)
1(1)
1(1)
1(1)
1(1)
1(1)
1(1)
1(1)
1(1)
1(1)
1(1)
1(1)
1(1)
1(1)
1(1)
1(1)
1(1)
1(1)
1(1)
1(1)
1(1)
1(1)
1(1)
1(1)
1(1)
1(1)
1(1)
1(1)
1(1)
1(1)
1(1)
1(1)
1(1)
1(1)
1(1)
1(1)
1(1)
1(1)
1(1)
1(1)
1(1)
1(1)
1(1)
1(1)
1(1)
1(1)
1(1)
1(1)
1(1)
1(1)
1(1)
1(1)
1(1)
1(1)
1(1)
1(1)
1(1)
1(1)
1(1)
1(1)
1(1)
1(1)
1(1)
1(1)
1(1)
1(1)
1(1)
1(1)
1(1)
1(1)
1(1)
1(1)
1(1)
1(1)
1(1)
1(1)
1(1)
1(1)
1(1)
1(1)
1(1)
1(1)
1(1)
1(1)
1(1)
1(1)
1(1)
1(1)
1(1)
1(1)
1(1)
1(1)
1(1)
1(1)
1(1)
1(1)
1(1)
1(1)
1(1)
)

// edgeNormals

122
(
2(28 31)
2(32 35)
2(1 2)
2(30 33)
2(110 115)
2(113 114)
1(0)
1(1)
1(2)
1(3)
1(4)
1(5)
1(6)
1(7)
1(8)
1(9)
1(10)
1(11)
1(12)
1(13)
1(14)
1(15)
1(16)
1(17)
1(18)
1(19)
1(20)
1(21)
1(22)
1(23)
1(24)
1(25)
1(26)
1(27)
1(28)
1(29)
1(30)
1(31)
1(32)
1(33)
1(34)
1(35)
1(36)
1(37)
1(38)
1(39)
1(40)
1(41)
1(42)
1(43)
1(44)
1(45)
1(46)
1(47)
1(48)
1(49)
1(50)
1(51)
1(52)
1(53)
1(54)
1(55)
1(56)
1(57)
1(58)
1(59)
1(60)
1(61)
1(62)
1(63)
1(64)
1(65)
1(66)
1(67)
1(68)
1(69)
1(70)
1(71)
1(72)
1(73)
1(74)
1(75)
1(76)
1(77)
1(78)
1(79)
1(80)
1(81)
1(82)
1(83)
1(84)
1(85)
1(86)
1(87)
1(88)
1(89)
1(90)
1(91)
1(92)
1(93)
1(94)
1(95)
1(96)
1(97)
1(98)
1(99)
1(100)
1(101)
1(102)
1(103)
1(104)
1(105)
1(106)
1(107)
1(108)
1(109)
1(110)
1(111)
1(112)
1(113)
1(114)
1(115)
)

// featurePointNormals

12
(
2(1 2)
2(1 2)
2(28 31)
2(28 31)
2(30 33)
2(30 33)
2(32 35)
2(32 35)
2(110 115)
2(110 115)
2(113 114)
2(113 114)
)

// featurePointEdges

12
(
3(2 6 8)
3(2 7 9)
3(0 34 36)
3(0 35 37)
3(3 36 38)
3(3 37 39)
3(1 38 40)
3(1 39 41)
3(4 116 120)
3(4 117 121)
3(5 118 120)
3(5 119 121)
)

// regionEdges

116
(
6
7
8
9
10
11
12
13
14
15
16
17
18
19
20
21
22
23
24
25
26
27
28
29
30
31
32
33
34
35
36
37
38
39
40
41
42
43
44
45
46
47
48
49
50
51
52
53
54
55
56
57
58
59
60
61
62
63
64
65
66
67
68
69
70
71
72
73
74
75
76
77
78
79
80
81
82
83
84
85
86
87
88
89
90
91
92
93
94
95
96
97
98
99
100
101
102
103
104
105
106
107
108
109
110
111
112
113
114
115
116
117
118
119
120
121
)



// ************************************************************************* //
