/*--------------------------------*- C++ -*----------------------------------*\
| =========                 |                                                 |
| \      /  F ield         | OpenFOAM: The Open Source CFD Toolbox           |
|  \    /   O peration     | Version:  v2212                                 |
|   \  /    A nd           | Website:  www.openfoam.com                      |
|    \/     M anipulation  |                                                 |
\*---------------------------------------------------------------------------*/
FoamFile
{
    version     2.0;
    format      ascii;
    class       dictionary;
    object      setFieldsDict;
}
// * * * * * * * * * * * * * * * * * * * * * * * * * * * * * * * * * * * * * //

defaultFieldValues
(
    volScalarFieldValue alpha.liquid   1.0
    volScalarFieldValue alpha.gas      0.0
    volScalarFieldValue Gh2            0.0
    volScalarFieldValue Gch4           0.0
    volScalarFieldValue Gco2           0.0
);

regions
(
    boxToCell
    {
        box (0 -0.013 0) (1 -0.000 1);
        fieldValues
        (
            volScalarFieldValue alpha.liquid    0.0
            volScalarFieldValue alpha.gas       1.0
            volScalarFieldValue Saa             0.0
            volScalarFieldValue Ssu             0.0
            volScalarFieldValue Sfa             0.0
            volScalarFieldValue Sva             0.0
            volScalarFieldValue Sbu             0.0
            volScalarFieldValue Spro            0.0
            volScalarFieldValue Sac             0.0
            volScalarFieldValue Sh2             0.0
            volScalarFieldValue Sch4            0.0
            volScalarFieldValue SIC             0.0
            volScalarFieldValue SIN             0.0
            volScalarFieldValue SI              0.0
            volScalarFieldValue Xc              0.0
            volScalarFieldValue Xch             0.0
            volScalarFieldValue Xpr             0.0
            volScalarFieldValue Xli             0.0
            volScalarFieldValue Xsu             0.0
            volScalarFieldValue Xaa             0.0
            volScalarFieldValue Xfa             0.0
            volScalarFieldValue Xc4             0.0
            volScalarFieldValue Xpro            0.0
            volScalarFieldValue Xac             0.0
            volScalarFieldValue Xh2             0.0
            volScalarFieldValue XI              0.0
            volScalarFieldValue Snh3            0.0
            volScalarFieldValue Gh2             0.011032
            volScalarFieldValue Gch4            1.6535
            volScalarFieldValue Gco2            13.5
        );
    }

    boxToCell
    {
        box (0 -0.08  0) (1 -0.013 1);
        fieldValues
        (
            volScalarFieldValue alpha.liquid    1.0
            volScalarFieldValue alpha.gas       0.0
            volScalarFieldValue Ssu             0.012394
            volScalarFieldValue Saa             0.0055
            volScalarFieldValue Sfa             0.1074
            volScalarFieldValue Sva             0.0123
            volScalarFieldValue Sbu             0.014
            volScalarFieldValue Spro            0.0176
            volScalarFieldValue Sac             0.0893
            volScalarFieldValue Sh2             2.5055e-07
            volScalarFieldValue Sch4            0.0555
            volScalarFieldValue SIC             95.1
            volScalarFieldValue SIN             94.5
            volScalarFieldValue SI              0.1309
            volScalarFieldValue Xc              0.1079
            volScalarFieldValue Xch             0.0205
            volScalarFieldValue Xpr             0.0842
            volScalarFieldValue Xli             0.0436
            volScalarFieldValue Xsu             0.3122
            volScalarFieldValue Xaa             0.9317
            volScalarFieldValue Xfa             0.3384
            volScalarFieldValue Xc4             0.3258
            volScalarFieldValue Xpro            0.1011
            volScalarFieldValue Xac             0.6772
            volScalarFieldValue Xh2             0.2848
            volScalarFieldValue XI              17.2162
            volScalarFieldValue Snh3            0.001884
            volScalarFieldValue Gh2             0.0
            volScalarFieldValue Gch4            0.0
            volScalarFieldValue Gco2            0.0
        );
    }

    boxToCell
    {
        box (0 -0.16  0) (1 -0.080 1);
        fieldValues
        (
            volScalarFieldValue alpha.liquid    1.0
            volScalarFieldValue alpha.gas       0.0
            volScalarFieldValue Ssu             0.000794575
            volScalarFieldValue Saa             0.000109709
            volScalarFieldValue Sfa             0.0225361
            volScalarFieldValue Sva             0.000394737
            volScalarFieldValue Sbu             0.00047003
            volScalarFieldValue Spro            0.00112412
            volScalarFieldValue Sac             0.00942798
            volScalarFieldValue Sh2             2.98875e-08
            volScalarFieldValue Shp             4.9022e-05
            volScalarFieldValue Sch4            0.0489446
            volScalarFieldValue SIC             96.2163
            volScalarFieldValue SIN             94.991
            volScalarFieldValue SI              0.133631
            volScalarFieldValue Xc              0.110459
            volScalarFieldValue Xch             0.00123065
            volScalarFieldValue Xpr             0.00165961
            volScalarFieldValue Xli             0.00193251
            volScalarFieldValue Xsu             0.312948
            volScalarFieldValue Xaa             0.929842
            volScalarFieldValue Xfa             0.342919
            volScalarFieldValue Xc4             0.326851
            volScalarFieldValue Xpro            0.101933
            volScalarFieldValue Xac             0.684397
            volScalarFieldValue Xh2             0.28675
            volScalarFieldValue XI              17.2217
            volScalarFieldValue Sco2            8.69072
            volScalarFieldValue Snh3            2.10378
            volScalarFieldValue Gh2             0.0
            volScalarFieldValue Gch4            0.0
            volScalarFieldValue Gco2            0.0
        );
    }

);


// ************************************************************************* //
