/*--------------------------------*- C++ -*----------------------------------*\
| =========                 |                                                 |
| \\      /  F ield         | OpenFOAM: The Open Source CFD Toolbox           |
|  \\    /   O peration     | Version:  v2206                                 |
|   \\  /    A nd           | Website:  www.openfoam.com                      |
|    \\/     M anipulation  |                                                 |
\*---------------------------------------------------------------------------*/
FoamFile
{
    version     2.0;
    format      ascii;
    class       dictionary;
    object      blockMeshDict;
}
// * * * * * * * * * * * * * * * * * * * * * * * * * * * * * * * * * * * * * //


// settings

scale    0.2;

xMin     0.00;
yMin    -0.80;
zMin     0.00;

xMax     0.20;
yMax     0.00;
zMax     0.001;


vertices
(
    ($xMin  $yMin  $zMin)
    ($xMax  $yMin  $zMin)
    ($xMax  $yMax  $zMin)
    ($xMin  $yMax  $zMin)
    ($xMin  $yMin  $zMax)
    ($xMax  $yMin  $zMax)
    ($xMax  $yMax  $zMax)
    ($xMin  $yMax  $zMax)
);

blocks
(
    hex (0 1 2 3 4 5 6 7)
    (128 256 1) 
    simpleGrading (1 1 1)
);

edges
(
);

boundary
(
    movingWall
    {
        type wall;
        faces
        (
            (3 7 6 2)
        );
    }
    fixedWalls
    {
        type wall;
        faces
        (
            (0 4 7 3)
            (2 6 5 1)
            (1 5 4 0)
        );
    }
    frontAndBack
    {
        type empty;
        faces
        (
            (4 5 6 7)
            (0 1 2 3)
        );
    }
);

mergePatchPairs
(
);


// ************************************************************************* //
