/*--------------------------------*- C++ -*----------------------------------*\
| =========                 |                                                 |
| \\      /  F ield         | OpenFOAM: The Open Source CFD Toolbox           |
|  \\    /   O peration     | Version:  2206                                  |
|   \\  /    A nd           | Website:  www.openfoam.com                      |
|    \\/     M anipulation  |                                                 |
\*---------------------------------------------------------------------------*/
FoamFile
{
    version     2.0;
    format      ascii;
    arch        "LSB;label=64;scalar=64";
    class       regIOobject;
    location    "constant/polyMesh";
    object      cellZones;
    meta
    {
        names           1 ( cellMRFzone );
    }
}
// * * * * * * * * * * * * * * * * * * * * * * * * * * * * * * * * * * * * * //

1
(cellMRFzone
{
    type            cellZone;
    cellLabels      List<label> 
140087
(
307
308
309
318
319
320
321
322
329
330
331
332
333
334
335
342
343
344
345
346
347
354
355
356
357
358
359
360
368
369
370
371
372
380
381
382
438
439
440
449
450
451
452
453
461
462
463
464
465
466
467
474
475
476
477
478
479
486
487
488
489
490
491
492
500
501
502
503
504
514
515
584
585
586
596
597
598
599
600
609
610
611
612
613
614
615
623
624
625
626
627
628
636
637
638
639
640
641
642
650
651
652
653
654
664
665
742
743
744
755
756
757
758
759
768
769
770
771
772
773
774
783
784
785
786
787
788
797
798
799
800
801
802
803
813
814
815
816
817
827
828
913
914
915
926
927
928
929
930
940
941
942
943
944
945
946
955
956
957
958
959
960
969
970
971
972
973
974
975
985
986
987
988
989
1000
1001
1002
1092
1093
1094
1105
1106
1107
1108
1109
1119
1120
1121
1122
1123
1124
1125
1134
1135
1136
1137
1138
1139
1148
1149
1150
1151
1152
1153
1154
1164
1165
1166
1167
1168
1180
1181
1182
1271
1272
1273
1284
1285
1286
1287
1288
1298
1299
1300
1301
1302
1303
1304
1313
1314
1315
1316
1317
1318
1327
1328
1329
1330
1331
1332
1342
1343
1344
1345
1346
1357
1358
1359
1446
1447
1448
1459
1460
1461
1462
1463
1473
1474
1475
1476
1477
1478
1479
1488
1489
1490
1491
1492
1501
1502
1503
1504
1505
1506
1507
1517
1518
1519
1520
1521
1531
1532
1533
1618
1619
1620
1631
1632
1633
1634
1635
1644
1645
1646
1647
1648
1649
1658
1659
1660
1661
1662
1663
1672
1673
1674
1675
1676
1677
1678
1687
1688
1689
1690
1691
1701
1702
1703
1774
1775
1776
1786
1787
1788
1789
1790
1798
1799
1800
1801
1802
1803
1804
1812
1813
1814
1815
1816
1817
1824
1825
1826
1827
1828
1829
1830
1838
1839
1840
1841
1842
1852
1853
1854
1916
1917
1918
1927
1928
1929
1930
1931
1939
1940
1941
1942
1943
1944
1945
1952
1953
1954
1955
1956
1957
1964
1965
1966
1967
1968
1969
1970
1978
1979
1980
1981
1982
1991
1992
1993
2347
2348
2352
2353
2354
2358
2359
2360
2364
2365
2366
2367
2368
2369
2370
2371
2372
2373
2375
2376
2377
2379
2380
2382
2386
2388
2389
2390
2391
2392
2393
2394
2395
2396
2397
2398
2399
2400
2401
2402
2404
2406
2408
2409
2410
2411
2412
2413
2414
2415
2416
2417
2418
2419
2420
2421
2422
2423
2424
2425
2426
2427
2428
2429
2430
2431
2432
2433
2435
2437
2439
2440
2441
2442
2443
2444
2445
2446
2447
2448
2449
2450
2451
2452
2453
2454
2455
2456
2457
2458
2459
2460
2461
2462
2463
2464
2465
2466
2467
2468
2469
2470
2471
2472
2473
2474
2475
2476
2477
2478
2479
2480
2481
2482
2483
2484
2485
2486
2488
2489
2491
2494
2504
2508
2512
2516
2517
2518
2519
2521
2522
2523
2524
2525
2526
2527
2528
2529
2530
2532
2533
2534
2536
2537
2538
2540
2542
2544
2545
2546
2547
2548
2549
2550
2551
2552
2553
2554
2555
2556
2557
2558
2559
2560
2561
2562
2563
2564
2565
2566
2567
2568
2569
2570
2571
2572
2573
2574
2575
2576
2577
2578
2579
2580
2581
2582
2583
2584
2585
2588
2589
2594
2600
2606
2610
2611
2612
2614
2615
2616
2617
2618
2619
2620
2621
2622
2624
2625
2626
2628
2629
2631
2635
2637
2638
2639
2640
2641
2642
2643
2645
2647
2649
2651
2652
2653
2654
2655
2656
2657
2658
2659
2660
2661
2662
2666
2671
2674
2677
2678
2683
2687
2690
2694
2695
2696
2697
2699
2700
2701
2702
2703
2704
2705
2706
2707
2708
2709
2710
2711
2712
2713
2714
2715
2716
2717
2718
2719
2720
2721
2722
2724
2726
2728
2730
2731
2732
2733
2734
2735
2736
2738
2740
2742
2744
2748
2751
2753
2754
2756
2757
2758
2759
2760
2761
2762
2766
2769
2772
2773
2778
2782
2784
2785
2788
2789
2790
2791
2792
2794
2795
2796
2797
2798
2799
2800
2801
2802
2803
2804
2805
2806
2807
2808
2809
2810
2812
2814
2816
2818
2820
2821
2822
2824
2825
2826
2827
2828
2829
2830
2831
2832
2833
2835
2836
2837
2842
2846
2850
2853
2855
2856
2857
2859
2861
2862
2865
2866
2868
2869
2872
2873
2874
2875
2876
2877
2878
2879
2880
2881
2882
2883
2884
2885
2886
2887
2888
2890
2892
2894
2895
2896
2897
2898
2899
2900
2901
2902
2903
2904
2905
2906
2907
2913
2915
2916
2918
2919
2920
2921
2922
2923
2924
2925
2926
2927
2928
2929
2930
2931
2932
2933
2934
2936
2937
2938
2943
2947
2951
2957
2962
2963
2966
2967
2969
2973
2975
2976
2977
2978
2979
2980
2981
2983
2984
2985
2987
2988
2989
2991
2993
2995
2996
2997
2998
2999
3000
3001
3002
3003
3007
3008
3009
3010
3011
3012
3016
3019
3020
3021
3022
3023
3024
3025
3026
3027
3029
3030
3031
3036
3041
3042
3043
3045
3046
3048
3055
3059
3060
3061
3062
3063
3064
3065
3066
3070
3071
3072
3073
3074
3075
3077
3079
3081
3082
3083
3084
3085
3086
3087
3088
3089
3090
3091
3092
3093
3094
3095
3096
3097
3099
3100
3101
3103
3106
3107
3113
3119
3123
3125
3129
3136
3137
3138
3140
3141
3142
3143
3144
3145
3146
3147
3148
3149
3151
3152
3153
3155
3156
3158
3162
3165
3167
3169
3170
3171
3172
3173
3174
3175
3176
3177
3178
3179
3180
3181
3182
3183
3184
3185
3186
3187
3188
3189
3190
3191
3192
3193
3194
3195
3196
3197
3198
3201
3202
3205
3208
3209
3214
3218
3219
3220
3221
3223
3224
3225
3226
3227
3228
3230
3231
3232
3233
3234
3235
3236
3237
3238
3239
3240
3241
3242
3243
3244
3245
3246
3248
3249
3250
3252
3253
3255
3259
3261
3262
3263
3264
3265
3266
3267
3268
3269
3270
3271
3272
3273
3274
3275
3276
3277
3278
3279
3280
3281
3282
3283
3284
3286
3288
3290
3292
3293
3294
3295
3296
3297
3298
3299
3300
3301
3302
3303
3304
3305
3306
3307
3308
3309
3310
3311
3312
3313
3314
3315
3316
3317
3321
3324
3327
3328
3333
3338
3339
3340
3345
3346
3347
3352
3353
3354
3359
3360
3361
3366
3367
3371
3372
3376
3377
3378
3383
3384
3385
3391
3397
3398
3402
3403
3404
3408
3409
3410
3415
3416
3417
3423
3429
3430
3431
3436
3437
3438
3443
3445
3450
3451
3452
3457
3547
3548
3549
3553
3555
3560
3561
3562
3563
3570
3575
3581
3582
3588
3589
3595
3597
3603
3605
3609
3610
3611
3612
3616
3617
3618
3621
3625
3634
3635
3636
3637
3638
3639
3642
3646
3647
3648
3649
3651
3652
3653
3654
3655
3656
3657
3658
3659
3660
3661
3662
3663
3664
3665
3666
3667
3669
3670
3671
3673
3674
3675
3676
3677
3678
3679
3680
3681
3682
3683
3684
3685
3686
3687
3688
3689
3690
3691
3692
3693
3694
3695
3696
3697
3698
3699
3700
3701
3702
3703
3704
3705
3706
3707
3708
3709
3710
3711
3712
3713
3714
3715
3716
3717
3718
3719
3720
3721
3722
3723
3724
3725
3726
3727
3729
3730
3731
3733
3734
3735
3736
3737
3741
3754
3758
3760
3761
3762
3764
3765
3768
3772
3780
3781
3782
3783
3784
3785
3786
3787
3788
3789
3790
3791
3792
3793
3794
3795
3796
3797
3798
3799
3801
3805
3807
3808
3809
3810
3811
3812
3813
3814
3815
3816
3817
3818
3819
3820
3821
3822
3823
3824
3825
3826
3827
3828
3829
3830
3831
3832
3833
3834
3835
3836
3837
3838
3839
3840
3841
3842
3843
3844
3845
3846
3848
3849
3850
3853
3855
3859
3861
3863
3879
3880
3881
3883
3884
3886
3890
3894
3898
3899
3900
3901
3903
3904
3905
3906
3907
3908
3909
3910
3911
3912
3913
3914
3915
3916
3917
3918
3919
3920
3921
3922
3923
3924
3925
3926
3927
3928
3929
3930
3931
3932
3933
3934
3935
3936
3937
3938
3939
3940
3941
3942
3943
3944
3945
3946
3947
3948
3949
3950
3951
3952
3954
3955
3956
3958
3960
3962
3964
3967
3969
3971
3981
3982
3985
3986
3987
3988
3989
3991
3992
3993
3994
3995
3996
3998
3999
4000
4001
4002
4003
4004
4005
4006
4007
4008
4009
4010
4011
4012
4013
4014
4016
4017
4018
4020
4021
4023
4027
4029
4030
4031
4032
4033
4034
4035
4036
4037
4038
4039
4040
4041
4042
4045
4046
4049
4050
4051
4052
4053
4054
4055
4056
4057
4058
4059
4060
4061
4062
4063
4064
4065
4066
4067
4068
4069
4070
4079
4081
4083
4086
4087
4090
4091
4092
4093
4094
4095
4096
4097
4098
4099
4100
4101
4102
4103
4104
4105
4106
4107
4108
4109
4110
4111
4112
4113
4114
4115
4116
4117
4118
4119
4121
4123
4125
4127
4128
4129
4130
4131
4132
4133
4134
4135
4136
4137
4138
4139
4140
4141
4142
4143
4144
4145
4146
4147
4150
4151
4154
4155
4159
4162
4163
4164
4165
4166
4167
4168
4176
4177
4178
4179
4180
4181
4182
4183
4184
4185
4186
4187
4195
4199
4203
4207
4209
4210
4211
4212
4213
4214
4216
4217
4218
4220
4221
4222
4223
4224
4225
4226
4227
4228
4229
4230
4231
4232
4233
4234
4235
4236
4237
4238
4239
4240
4241
4242
4244
4246
4248
4250
4251
4252
4253
4254
4255
4256
4257
4258
4259
4260
4261
4264
4265
4268
4277
4281
4283
4285
4286
4287
4289
4290
4291
4293
4294
4295
4304
4305
4306
4307
4308
4309
4310
4312
4316
4318
4319
4320
4321
4322
4323
4324
4325
4326
4327
4328
4329
4330
4331
4332
4333
4334
4335
4336
4337
4338
4339
4340
4341
4342
4343
4344
4346
4347
4348
4350
4351
4352
4354
4355
4356
4358
4359
4360
4361
4362
4363
4364
4366
4367
4368
4370
4381
4393
4397
4406
4407
4408
4409
4410
4411
4412
4415
4426
4427
4428
4430
4431
4432
4434
4435
4437
4438
4439
4440
4441
4442
4443
4444
4445
4446
4447
4448
4449
4450
4451
4452
4453
4454
4455
4456
4457
4458
4459
4460
4461
4462
4463
4464
4465
4466
4467
4468
4469
4470
4471
4472
4473
4474
4475
4476
4477
4478
4482
4487
4489
4491
4501
4502
4503
4505
4506
4514
4515
4516
4518
4519
4520
4521
4522
4523
4524
4525
4526
4527
4528
4529
4530
4531
4532
4533
4534
4535
4536
4537
4538
4539
4540
4541
4542
4543
4544
4545
4546
4547
4548
4550
4552
4554
4556
4557
4558
4559
4560
4561
4562
4563
4564
4565
4566
4567
4568
4569
4570
4571
4573
4574
4575
4578
4580
4582
4587
4600
4604
4614
4618
4619
4620
4621
4623
4624
4625
4626
4627
4628
4629
4630
4631
4632
4633
4634
4635
4636
4637
4638
4639
4640
4641
4642
4643
4644
4645
4646
4647
4648
4649
4650
4651
4652
4653
4654
4655
4656
4657
4658
4659
4662
4665
4666
4667
4668
4669
4670
4671
4672
4673
4674
4675
4676
4677
4678
4679
4681
4683
4685
4687
4688
4689
4690
4691
4692
4693
4694
4695
4696
4697
4698
4699
4700
4701
4703
4704
4705
4707
4708
4709
4710
4711
4712
4713
4714
4715
4716
4717
4718
4719
4720
4721
4723
4725
4727
4729
4732
4733
4745
4750
4751
4752
4754
4755
4756
4757
4758
4759
4764
4765
4766
4767
4768
4769
4770
4771
4772
4777
4778
4779
4784
4785
4786
4787
4788
4789
4790
4791
4792
4797
4798
4799
4800
4801
4804
4807
4808
4810
4815
4816
4817
4822
4829
4830
4831
4832
4833
4834
4835
4836
4944
4947
4954
4957
4968
4971
4972
4973
4974
4975
4976
4977
4978
4979
4980
4982
4983
4984
4985
4986
4987
4988
4989
4990
4992
4993
4994
4995
4996
5000
5002
5005
5006
5007
5008
5010
5011
5012
5013
5014
5015
5016
5017
5018
5019
5020
5021
5022
5023
5024
5025
5026
5027
5028
5029
5030
5031
5032
5033
5034
5035
5036
5037
5038
5039
5040
5041
5042
5043
5044
5045
5046
5047
5048
5049
5050
5051
5052
5053
5055
5058
5061
5064
5067
5068
5070
5073
5074
5075
5076
5077
5078
5079
5080
5081
5082
5083
5084
5085
5086
5087
5088
5089
5090
5091
5092
5093
5094
5095
5096
5097
5098
5099
5100
5101
5102
5103
5104
5105
5106
5107
5108
5109
5110
5111
5112
5113
5114
5115
5116
5117
5118
5119
5120
5121
5122
5123
5124
5125
5126
5129
5130
5133
5134
5135
5136
5137
5138
5139
5140
5141
5142
5143
5144
5145
5146
5147
5148
5149
5150
5151
5152
5153
5154
5155
5156
5157
5158
5159
5160
5161
5162
5163
5164
5165
5166
5167
5168
5169
5170
5171
5172
5173
5174
5175
5176
5177
5178
5179
5180
5181
5182
5183
5184
5185
5186
5187
5188
5189
5190
5191
5192
5193
5194
5195
5196
5197
5198
5199
5200
5201
5202
5203
5204
5205
5206
5207
5208
5209
5210
5211
5212
5213
5214
5215
5216
5217
5218
5219
5220
5221
5222
5223
5224
5225
5226
5227
5228
5229
5230
5231
5232
5233
5234
5235
5236
5237
5239
5240
5241
5242
5243
5244
5245
5246
5247
5248
5250
5251
5252
5253
5254
5256
5257
5259
5263
5264
5266
5270
5271
5272
5274
5277
5284
5288
5291
5294
5295
5297
5300
5302
5303
5304
5305
5306
5307
5308
5309
5310
5311
5312
5313
5314
5315
5316
5317
5318
5319
5320
5321
5322
5323
5324
5325
5326
5327
5328
5329
5330
5331
5332
5333
5334
5335
5336
5337
5339
5340
5341
5342
5343
5344
5345
5346
5347
5350
5351
5354
5355
5356
5357
5358
5359
5360
5361
5362
5363
5364
5365
5366
5367
5368
5369
5370
5371
5372
5373
5374
5375
5376
5377
5378
5379
5380
5381
5382
5383
5384
5385
5386
5387
5388
5389
5390
5391
5392
5393
5394
5395
5396
5397
5398
5399
5400
5401
5402
5403
5404
5405
5406
5407
5408
5409
5410
5411
5412
5413
5414
5415
5416
5417
5418
5419
5420
5421
5422
5423
5425
5426
5428
5432
5434
5438
5439
5444
5445
5451
5458
5460
5465
5469
5470
5471
5472
5474
5475
5476
5477
5478
5479
5480
5481
5482
5483
5484
5485
5487
5488
5489
5490
5491
5492
5493
5494
5495
5496
5497
5498
5499
5500
5501
5502
5503
5504
5505
5507
5508
5509
5510
5511
5512
5513
5514
5515
5516
5517
5518
5519
5520
5521
5522
5523
5524
5526
5528
5530
5533
5534
5536
5539
5540
5541
5542
5543
5544
5545
5546
5547
5548
5549
5550
5551
5553
5555
5557
5559
5560
5561
5562
5563
5564
5565
5566
5567
5568
5569
5570
5571
5572
5573
5574
5575
5576
5577
5578
5579
5580
5581
5582
5583
5584
5585
5586
5587
5588
5589
5590
5591
5592
5593
5594
5595
5596
5597
5599
5600
5602
5606
5608
5612
5613
5618
5619
5624
5626
5628
5632
5636
5638
5639
5640
5642
5643
5644
5645
5646
5647
5648
5649
5650
5651
5652
5653
5654
5655
5656
5657
5658
5660
5661
5662
5663
5664
5665
5666
5667
5668
5669
5670
5671
5672
5673
5674
5675
5676
5677
5678
5679
5680
5681
5682
5683
5684
5685
5686
5687
5688
5689
5690
5691
5692
5693
5694
5695
5696
5697
5698
5699
5700
5701
5702
5703
5704
5706
5708
5710
5713
5714
5716
5719
5720
5721
5722
5723
5724
5725
5727
5729
5731
5735
5737
5740
5741
5742
5743
5744
5745
5746
5747
5748
5749
5751
5752
5753
5754
5755
5756
5757
5758
5759
5760
5761
5762
5763
5764
5765
5766
5767
5768
5769
5770
5771
5772
5773
5774
5776
5777
5778
5779
5780
5781
5782
5783
5784
5785
5786
5788
5790
5792
5795
5796
5798
5803
5804
5807
5810
5813
5815
5817
5819
5822
5825
5827
5828
5829
5830
5831
5832
5833
5834
5835
5836
5837
5838
5839
5840
5841
5842
5843
5844
5845
5846
5847
5848
5849
5850
5851
5852
5853
5854
5855
5856
5857
5858
5859
5860
5861
5862
5863
5864
5865
5866
5867
5868
5869
5870
5871
5872
5873
5874
5875
5876
5877
5878
5879
5880
5881
5882
5883
5884
5885
5886
5888
5890
5892
5895
5896
5898
5901
5902
5903
5904
5905
5906
5907
5908
5910
5911
5912
5913
5914
5915
5916
5917
5918
5919
5920
5921
5922
5923
5924
5925
5926
5927
5928
5929
5930
5931
5932
5933
5934
5935
5937
5939
5941
5944
5945
5947
5948
5950
5954
5959
5963
5964
5965
5966
5968
5969
5970
5971
5972
5973
5974
5975
5976
5977
5979
5980
5981
5984
5985
5988
5991
5994
5996
5998
6000
6003
6006
6008
6009
6010
6011
6012
6013
6014
6015
6016
6017
6018
6019
6020
6021
6022
6023
6024
6025
6026
6027
6028
6029
6030
6031
6032
6033
6034
6036
6037
6039
6042
6043
6044
6045
6046
6047
6048
6049
6050
6051
6052
6053
6054
6055
6057
6059
6061
6063
6064
6065
6066
6067
6068
6069
6070
6071
6072
6074
6075
6076
6077
6078
6079
6080
6081
6082
6083
6084
6085
6086
6087
6088
6089
6090
6091
6092
6093
6094
6095
6096
6098
6099
6100
6101
6102
6103
6104
6105
6106
6107
6108
6109
6110
6111
6112
6113
6114
6115
6116
6117
6118
6119
6120
6121
6122
6123
6125
6126
6127
6128
6129
6130
6131
6132
6133
6134
6135
6136
6137
6138
6139
6140
6142
6143
6144
6145
6146
6148
6149
6150
6151
6155
6157
6162
6163
6166
6169
6172
6174
6176
6178
6180
6181
6182
6183
6184
6185
6186
6187
6188
6189
6190
6191
6192
6193
6194
6195
6196
6197
6198
6199
6200
6201
6202
6203
6204
6206
6207
6208
6209
6210
6211
6212
6213
6214
6215
6216
6218
6219
6221
6224
6225
6226
6227
6228
6229
6230
6233
6234
6238
6240
6244
6246
6250
6251
6255
6256
6257
6258
6259
6260
6261
6262
6263
6264
6265
6266
6267
6268
6269
6270
6271
6272
6273
6274
6275
6276
6277
6278
6279
6280
6281
6282
6283
6284
6285
6286
6287
6290
6291
6294
6295
6296
6297
6298
6299
6300
6301
6302
6303
6304
6305
6306
6307
6308
6309
6310
6311
6312
6313
6314
6315
6316
6317
6318
6319
6320
6321
6322
6323
6324
6325
6326
6328
6329
6330
6332
6336
6339
6346
6350
6351
6352
6354
6355
6356
6357
6358
6359
6360
6361
6362
6363
6364
6365
6366
6368
6369
6370
6371
6372
6373
6374
6375
6376
6380
6384
6385
6386
6387
6392
6394
6397
6398
6400
6403
6404
6405
6406
6407
6408
6409
6410
6411
6412
6413
6414
6415
6416
6419
6420
6423
6425
6427
6431
6433
6437
6438
6442
6443
6444
6445
6446
6447
6448
6449
6450
6451
6452
6453
6454
6455
6456
6457
6458
6459
6460
6461
6462
6463
6464
6465
6466
6467
6468
6469
6470
6471
6472
6473
6476
6477
6480
6481
6482
6483
6484
6485
6486
6487
6488
6489
6490
6491
6492
6493
6494
6495
6496
6497
6498
6499
6500
6501
6502
6503
6504
6505
6506
6507
6509
6510
6511
6512
6513
6514
6515
6516
6518
6519
6521
6525
6526
6528
6534
6536
6539
6540
6541
6543
6544
6547
6551
6553
6555
6557
6560
6561
6563
6566
6567
6568
6569
6570
6571
6572
6573
6574
6575
6576
6577
6578
6579
6581
6582
6583
6584
6585
6586
6587
6588
6589
6590
6591
6592
6593
6594
6595
6596
6597
6598
6599
6600
6601
6602
6603
6604
6605
6606
6607
6608
6609
6610
6611
6612
6613
6614
6616
6617
6618
6619
6620
6621
6622
6623
6624
6625
6626
6628
6629
6630
6631
6632
6633
6634
6635
6636
6637
6638
6639
6640
6641
6642
6643
6644
6645
6647
6648
6650
6655
6656
6659
6660
6661
6662
6663
6664
6665
6666
6667
6668
6669
6670
6671
6672
6673
6674
6675
6676
6677
6678
6679
6680
6681
6682
6683
6684
6685
6686
6687
6688
6689
6690
6691
6692
6693
6694
6695
6696
6697
6698
6699
6700
6702
6703
6705
6709
6711
6713
6716
6717
6719
6724
6728
6730
6731
6733
6734
6739
6742
6743
6744
6745
6747
6749
6750
6751
6752
6753
6754
6755
6756
6757
6758
6759
6760
6761
6762
6763
6764
6765
6766
6767
6768
6769
6770
6771
6772
6773
6774
6775
6776
6777
6778
6779
6780
6781
6782
6783
6784
6785
6786
6787
6788
6789
6790
6791
6792
6793
6794
6795
6796
6797
6798
6799
6800
6801
6802
6804
6806
6808
6810
6811
6812
6813
6814
6815
6816
6817
6818
6819
6820
6821
6822
6823
6824
6825
6826
6827
6828
6829
6830
6831
6832
6833
6834
6835
6836
6837
6838
6839
6840
6841
6842
6843
6844
6845
6846
6847
6848
6849
6850
6851
6852
6853
6854
6855
6856
6857
6858
6859
6860
6861
6862
6863
6864
6865
6866
6867
6868
6870
6872
6874
6877
6879
6882
6883
6884
6885
6886
6887
6888
6889
6890
6891
6892
6893
6894
6895
6896
6897
6898
6899
6900
6901
6902
6903
6904
6905
6906
6907
6908
6909
6910
6911
6912
6913
6914
6915
6916
6917
6918
6919
6920
6921
6922
6923
6924
6925
6926
6927
6928
6929
6930
6931
6932
6933
6934
6935
6936
6937
6938
6939
6940
6942
6943
6945
6949
6951
6953
6956
6957
6959
6964
6968
6969
6970
6971
6972
6973
6974
6975
6976
6980
6981
6983
6984
6987
6988
6990
6993
6994
6996
6999
7000
7002
7003
7004
7005
7006
7007
7008
7009
7010
7011
7012
7013
7014
7015
7016
7017
7018
7019
7020
7023
7024
7026
7027
7030
7031
7033
7034
7037
7038
7040
7041
7044
7046
7047
7048
7049
7050
7051
7054
7055
7056
7057
7058
7059
7060
7062
7064
7065
7066
7067
7068
7069
7070
7071
7072
7073
7074
7075
7076
7077
7078
7079
7080
7081
7082
7083
7084
7086
7088
7090
7092
7093
7094
7095
7096
7098
7100
7103
7104
7106
7107
7108
7109
7110
7111
7112
7114
7116
7117
7120
7121
7123
7124
7127
7128
7130
7131
7134
7135
7137
7138
7141
7142
7145
7149
7151
7152
7155
7157
7158
7161
7162
7164
7165
7168
7170
7171
7172
7173
7174
7175
7176
7177
7178
7179
7180
7181
7182
7183
7184
7185
7186
7187
7188
7189
7190
7191
7194
7196
7197
7199
7200
7201
7202
7203
7204
7205
7206
7207
7208
7211
7212
7214
7215
7218
7219
7221
7225
7226
7229
7231
7233
7352
7365
7367
7371
7380
7381
7387
7388
7415
7421
7427
7434
7439
7440
7443
7444
7445
7446
7447
7448
7449
7450
7451
7454
7458
7466
7467
7468
7469
7470
7471
7472
7473
7474
7475
7476
7477
7478
7486
7487
7488
7489
7490
7491
7506
7507
7508
7509
7510
7511
7512
7513
7514
7515
7516
7517
7518
7519
7520
7521
7525
7528
7530
7531
7532
7534
7535
7536
7537
7538
7539
7540
7541
7542
7543
7544
7545
7546
7547
7548
7549
7550
7551
7552
7553
7554
7555
7556
7557
7558
7559
7560
7561
7562
7563
7564
7565
7566
7568
7570
7572
7574
7584
7588
7597
7598
7599
7600
7601
7602
7603
7604
7605
7606
7607
7608
7609
7610
7625
7626
7627
7628
7629
7630
7631
7632
7633
7634
7635
7636
7637
7638
7639
7640
7642
7644
7646
7648
7650
7652
7654
7655
7656
7657
7658
7659
7660
7661
7662
7663
7664
7665
7666
7667
7668
7669
7670
7671
7672
7673
7674
7675
7676
7677
7678
7679
7680
7681
7682
7683
7684
7685
7686
7687
7688
7689
7690
7691
7692
7693
7694
7695
7697
7698
7699
7700
7702
7719
7723
7724
7725
7726
7727
7728
7729
7730
7742
7744
7745
7746
7747
7748
7749
7750
7751
7752
7753
7754
7755
7756
7757
7760
7764
7765
7767
7769
7771
7772
7773
7774
7775
7776
7777
7778
7781
7782
7785
7794
7796
7798
7800
7801
7802
7803
7804
7805
7806
7807
7808
7809
7810
7811
7812
7813
7814
7815
7816
7817
7818
7819
7820
7821
7822
7823
7824
7825
7826
7827
7849
7850
7851
7852
7853
7854
7855
7856
7857
7858
7859
7860
7868
7869
7870
7871
7872
7873
7874
7877
7878
7881
7889
7891
7892
7893
7895
7896
7897
7899
7900
7901
7906
7910
7911
7912
7913
7914
7915
7916
7918
7922
7924
7925
7926
7927
7928
7929
7930
7947
7951
7952
7953
7954
7956
7957
7958
7959
7960
7961
7962
7963
7964
7965
7966
7967
7968
7969
7970
7971
7972
7980
7981
7982
7983
7984
7985
7986
7989
7990
7993
7995
7999
8004
8038
8042
8050
8051
8052
8054
8055
8056
8057
8058
8059
8060
8061
8062
8063
8064
8065
8066
8067
8068
8069
8070
8071
8072
8073
8074
8075
8076
8077
8078
8079
8080
8081
8082
8083
8084
8085
8086
8087
8088
8089
8090
8091
8093
8094
8095
8096
8098
8114
8115
8118
8119
8127
8128
8129
8130
8131
8132
8133
8134
8135
8136
8137
8138
8146
8147
8148
8149
8150
8151
8152
8167
8168
8169
8170
8171
8172
8173
8174
8175
8176
8177
8178
8179
8180
8181
8182
8183
8184
8185
8186
8187
8188
8189
8190
8191
8192
8193
8194
8195
8196
8197
8198
8199
8200
8201
8202
8203
8204
8205
8206
8207
8208
8212
8216
8217
8218
8219
8220
8221
8222
8223
8226
8227
8231
8232
8235
8236
8237
8238
8239
8240
8241
8242
8243
8244
8245
8246
8247
8248
8249
8250
8251
8252
8253
8254
8255
8256
8257
8258
8259
8260
8261
8262
8263
8265
8269
8285
8286
8287
8288
8289
8290
8291
8292
8293
8294
8295
8296
8297
8298
8299
8300
8301
8302
8303
8304
8305
8320
8321
8322
8323
8324
8325
8326
8327
8328
8329
8330
8331
8332
8333
8334
8337
8338
8362
8363
8364
8366
8367
8368
8371
8375
8382
8383
8384
8385
8386
8387
8388
8389
8390
8391
8392
8393
8394
8395
8396
8397
8398
8399
8400
8401
8402
8403
8404
8405
8406
8407
8408
8409
8410
8411
8412
8413
8414
8415
8416
8417
8418
8419
8420
8421
8422
8423
8424
8425
8427
8428
8429
8431
8432
8436
8439
8441
8460
8461
8462
8463
8464
8465
8466
8468
8472
8481
8486
8488
8489
8490
8491
8492
8493
8494
8497
8509
8510
8511
8512
8513
8514
8515
8516
8517
8518
8519
8520
8521
8522
8526
8536
8538
8542
8551
8552
8561
8563
8564
8565
8566
8567
8568
8569
8570
8571
8577
8578
8584
8590
8591
8592
8593
8594
8595
8596
8597
8598
8599
8600
8601
8602
8603
8604
8605
8606
8607
8608
8609
8610
8611
8612
8613
8614
8617
8618
8621
8629
8630
8631
8632
8633
8634
8635
8636
8637
8638
8646
8647
8648
8649
8650
8651
8652
8653
8654
8655
8656
8657
8658
8659
8660
8665
8666
8679
8680
8681
8682
8683
8684
8685
8686
8687
8688
8689
8698
8702
8704
8706
8708
8809
8812
8815
8818
8828
8831
8841
8842
8845
8848
8851
8854
8857
8860
8861
8864
8865
8866
8867
8868
8869
8870
8871
8872
8873
8874
8875
8876
8877
8878
8879
8880
8881
8882
8883
8884
8885
8886
8887
8888
8889
8890
8891
8892
8893
8894
8895
8896
8897
8898
8899
8900
8901
8902
8906
8908
8910
8911
8912
8913
8914
8915
8916
8917
8918
8919
8920
8921
8922
8923
8924
8925
8926
8927
8928
8929
8930
8931
8932
8933
8934
8935
8936
8937
8938
8939
8940
8941
8942
8943
8944
8945
8946
8947
8948
8970
8971
8972
8973
8974
8975
8976
8977
8978
8979
8980
8981
8982
8983
8984
8985
8986
8987
8988
8989
8990
8991
8992
8993
8994
8995
8996
8997
8998
8999
9000
9001
9002
9003
9004
9005
9006
9007
9008
9009
9010
9011
9012
9013
9014
9015
9016
9017
9018
9019
9020
9021
9022
9023
9024
9025
9026
9027
9028
9029
9030
9031
9032
9033
9034
9035
9036
9037
9038
9039
9040
9041
9042
9043
9044
9045
9046
9047
9048
9049
9050
9051
9052
9053
9054
9055
9056
9057
9058
9060
9062
9064
9067
9069
9071
9073
9074
9075
9076
9077
9078
9079
9080
9081
9082
9083
9084
9085
9086
9087
9088
9089
9090
9091
9092
9093
9094
9095
9096
9097
9098
9099
9100
9101
9102
9103
9104
9105
9106
9107
9108
9109
9110
9111
9112
9113
9114
9115
9116
9117
9118
9119
9120
9121
9122
9123
9124
9125
9126
9127
9128
9129
9130
9131
9132
9133
9134
9135
9136
9137
9138
9139
9140
9141
9142
9143
9144
9145
9146
9147
9148
9149
9150
9151
9152
9153
9154
9155
9156
9157
9158
9159
9160
9161
9162
9163
9164
9165
9166
9167
9168
9169
9170
9171
9172
9173
9174
9175
9176
9177
9178
9179
9180
9181
9182
9183
9184
9185
9186
9187
9188
9189
9190
9191
9192
9193
9194
9195
9196
9197
9198
9199
9200
9201
9202
9203
9204
9205
9206
9207
9208
9209
9210
9211
9212
9213
9214
9215
9216
9217
9218
9219
9220
9221
9222
9223
9224
9225
9226
9227
9228
9229
9230
9231
9232
9233
9234
9235
9236
9237
9238
9239
9240
9241
9242
9248
9251
9252
9253
9255
9258
9260
9264
9265
9266
9267
9270
9271
9272
9274
9275
9279
9281
9283
9284
9285
9286
9287
9288
9289
9290
9291
9292
9293
9294
9295
9296
9297
9298
9299
9300
9301
9302
9303
9304
9305
9306
9307
9308
9309
9310
9311
9312
9313
9314
9315
9316
9317
9318
9319
9320
9321
9322
9323
9324
9325
9326
9327
9328
9329
9330
9331
9332
9333
9334
9335
9336
9337
9338
9340
9341
9342
9343
9344
9345
9346
9347
9348
9349
9350
9356
9357
9358
9359
9360
9361
9362
9363
9364
9365
9366
9367
9368
9369
9370
9371
9372
9373
9374
9376
9378
9380
9383
9385
9387
9389
9390
9391
9392
9393
9394
9395
9396
9397
9398
9399
9400
9401
9402
9403
9404
9405
9406
9407
9408
9409
9410
9411
9412
9413
9414
9415
9416
9417
9418
9419
9420
9421
9422
9423
9424
9425
9426
9427
9428
9429
9430
9431
9432
9433
9434
9435
9436
9437
9438
9439
9440
9441
9442
9443
9444
9445
9446
9447
9448
9449
9450
9451
9452
9453
9454
9455
9463
9464
9465
9466
9467
9497
9498
9499
9501
9502
9503
9504
9505
9506
9507
9508
9509
9510
9511
9512
9513
9514
9515
9516
9517
9518
9519
9520
9521
9522
9523
9524
9525
9526
9527
9528
9529
9530
9531
9532
9533
9534
9535
9536
9537
9538
9539
9540
9541
9542
9543
9544
9545
9546
9547
9553
9554
9555
9556
9557
9558
9559
9560
9561
9563
9564
9565
9566
9567
9568
9569
9570
9571
9572
9573
9579
9582
9583
9584
9586
9587
9588
9589
9590
9591
9592
9593
9594
9595
9596
9597
9598
9599
9600
9601
9602
9603
9604
9605
9606
9607
9608
9609
9618
9619
9621
9624
9625
9626
9627
9628
9629
9630
9631
9632
9633
9634
9635
9636
9638
9639
9640
9641
9642
9658
9659
9660
9661
9662
9690
9694
9696
9700
9704
9708
9710
9712
9713
9714
9715
9716
9717
9718
9719
9720
9721
9722
9723
9724
9725
9726
9727
9728
9729
9730
9731
9732
9733
9734
9735
9736
9737
9738
9739
9740
9741
9742
9743
9744
9745
9746
9747
9748
9749
9750
9751
9752
9753
9754
9755
9756
9757
9758
9759
9760
9761
9762
9763
9764
9780
9782
9784
9793
9794
9795
9796
9797
9798
9799
9800
9801
9802
9803
9804
9805
9806
9807
9808
9809
9810
9811
9812
9813
9814
9815
9816
9817
9818
9819
9820
9829
9830
9832
9836
9837
9838
9839
9840
9842
9843
9844
9845
9846
9847
9848
9854
9855
9856
9857
9858
9859
9860
9861
9862
9863
9864
9865
9866
9867
9868
9869
9870
9871
9872
9873
9874
9875
9877
9878
9879
9880
9884
9886
9891
9897
9898
9899
9901
9903
9905
9907
9923
9924
9925
9926
9927
9928
9929
9930
9931
9932
9933
9934
9935
9936
9937
9938
9939
9940
9941
9942
9943
9944
9945
9946
9947
9948
9949
9950
9951
9952
9953
9954
9955
9956
9957
9958
9959
9960
9961
9962
9963
9964
9965
9966
9967
9968
9969
9970
9986
9988
9990
9992
9993
9994
9995
9996
9997
10005
10006
10007
10008
10009
10010
10011
10012
10013
10014
10015
10016
10017
10018
10019
10020
10021
10022
10023
10024
10025
10026
10027
10028
10029
10030
10031
10032
10033
10034
10035
10036
10037
10038
10039
10041
10042
10043
10044
10045
10047
10049
10050
10053
10060
10062
10065
10070
10072
10073
10074
10075
10076
10077
10087
10088
10091
10093
10095
10097
10113
10114
10115
10116
10117
10118
10119
10120
10121
10122
10123
10124
10125
10126
10127
10128
10129
10130
10131
10132
10133
10134
10135
10136
10137
10138
10139
10140
10141
10142
10143
10144
10145
10146
10147
10148
10149
10150
10151
10152
10153
10154
10155
10156
10157
10158
10159
10160
10161
10162
10163
10164
10165
10166
10167
10168
10169
10170
10171
10172
10173
10174
10175
10176
10177
10178
10179
10180
10181
10182
10183
10184
10185
10186
10189
10190
10193
10199
10202
10203
10204
10205
10209
10211
10218
10220
10221
10222
10223
10224
10225
10226
10227
10228
10229
10230
10231
10232
10233
10234
10235
10236
10237
10238
10239
10240
10241
10242
10243
10244
10245
10246
10247
10248
10249
10250
10251
10252
10253
10254
10255
10256
10257
10258
10259
10260
10261
10262
10263
10264
10265
10266
10267
10269
10273
10279
10283
10284
10285
10287
10288
10290
10294
10298
10300
10312
10313
10316
10317
10318
10319
10320
10321
10323
10325
10327
10330
10331
10332
10334
10335
10339
10341
10343
10344
10345
10346
10347
10348
10349
10350
10351
10352
10353
10354
10355
10356
10357
10358
10359
10360
10361
10362
10363
10364
10365
10366
10367
10368
10369
10370
10371
10372
10373
10381
10382
10383
10384
10385
10386
10387
10395
10396
10397
10398
10399
10414
10415
10416
10417
10418
10419
10420
10421
10422
10423
10424
10425
10427
10428
10429
10430
10432
10433
10434
10435
10436
10437
10438
10439
10440
10441
10442
10443
10444
10445
10446
10447
10448
10449
10450
10451
10452
10453
10454
10455
10456
10457
10458
10459
10460
10461
10463
10464
10465
10466
10467
10468
10469
10470
10471
10472
10473
10474
10475
10476
10477
10478
10479
10480
10487
10488
10489
10490
10497
10498
10499
10500
10501
10502
10503
10504
10505
10506
10507
10508
10509
10510
10511
10513
10514
10515
10517
10519
10520
10521
10522
10523
10525
10526
10527
10528
10529
10530
10531
10532
10533
10534
10535
10536
10537
10538
10539
10540
10541
10542
10557
10558
10559
10560
10561
10569
10570
10571
10572
10573
10574
10575
10576
10577
10578
10579
10580
10581
10582
10583
10584
10585
10586
10587
10588
10589
10590
10591
10592
10593
10594
10595
10596
10597
10598
10599
10600
10601
10602
10603
10604
10605
10606
10607
10608
10609
10610
10611
10612
10613
10614
10619
10621
10622
10623
10624
10625
10626
10627
10629
10630
10631
10632
10633
10635
10637
10639
10642
10643
10645
10648
10649
10650
10651
10660
10664
10667
10668
10669
10671
10672
10677