/*--------------------------------*- C++ -*----------------------------------*\
| =========                 |                                                 |
| \\      /  F ield         | OpenFOAM: The Open Source CFD Toolbox           |
|  \\    /   O peration     | Version:  2206                                  |
|   \\  /    A nd           | Website:  www.openfoam.com                      |
|    \\/     M anipulation  |                                                 |
\*---------------------------------------------------------------------------*/
FoamFile
{
    version     2.0;
    format      ascii;
    arch        "LSB;label=64;scalar=64";
    class       regIOobject;
    location    "constant/polyMesh";
    object      faceZones;
    meta
    {
        names           1 ( faceMRFzone );
    }
}
// * * * * * * * * * * * * * * * * * * * * * * * * * * * * * * * * * * * * * //

1
(faceMRFzone
{
    type            faceZone;
    faceLabels      List<label> 
23303
(
2200
2201
2203
2209
2284
2285
2288
2293
2313
2364
2369
2374
2394
2400
2406
2408
2482
2489
2540
2546
2551
2557
2569
2575
2577
2579
2646
2650
2656
2662
2729
2732
2734
3173
3175
3248
3249
3256
3257
3258
3259
3410
3589
3590
3643
3751
4260
4262
4285
4648
4649
4701
4803
4807
4811
4812
4813
4814
5413
5804
5806
5885
5984
5986
6641
6694
6695
6829
7198
7215
7216
7852
7853
7876
7930
7931
8068
8448
8459
8461
9084
9085
9111
9168
9169
9316
9504
9505
9509
9693
9704
9706
10322
10323
10403
10405
10565
10747
10748
10825
10932
11561
11563
11786
11985
11986
12052
12152
12692
12696
12697
12698
12699
12702
12726
13111
13113
13165
13291
13292
13780
13824
13825
13829
14144
14146
14216
14322
14324
16897
16898
16905
16910
16913
16914
16916
16917
16937
16940
16942
16946
16947
16968
16970
16971
16972
16977
16979
16997
17001
17004
17010
17061
17109
17123
17203
17213
17219
17257
17259
17260
17261
17262
17324
17371
17500
17534
17539
17550
17581
17589
17696
17807
17814
17909
18011
18013
18543
18656
18800
18801
18808
18809
18810
18811
19049
19052
19057
19058
19059
19060
19176
19278
19494
19495
19496
19497
19594
19649
19652
19974
19975
20144
20148
20149
20150
20151
20154
20263
20264
20477
20497
20498
20499
20500
21061
21072
21250
21251
21258
21259
21260
21261
21302
21334
21629
21630
21708
21754
21757
21762
21763
21764
21765
21934
22061
22062
22069
22070
22071
22072
22169
22194
22197
22244
22806
22807
22808
22809
23086
23087
23667
23700
23737
23773
23793
23807
23808
23809
23810
23904
23935
23941
23977
23983
24034
24133
24175
24184
24220
24229
24244
24245
24246
24247
24268
24269
24270
24271
24313
24361
24362
24363
24364
24377
24413
24414
24415
24416
24456
24461
24467
24961
24963
24965
24971
24990
25005
25009
25010
25013
25014
25034
25038
25040
25043
25044
25050
25051
25052
25055
25100
25102
25103
25126
25135
25136
25139
25140
25141
25164
25169
25173
25174
25181
25182
25202
25206
25210
25211
25217
25219
25222
25239
25240
25243
25252
25253
25256
25258
25259
25263
25264
25268
25271
25274
25293
25294
25297
25300
25301
25302
25306
25316
25333
25334
25337
25340
25346
25347
25352
25371
25375
25376
25380
25517
25518
25520
25557
25562
25567
25572
25573
25610
25705
25707
25708
25712
25768
25772
25783
25973
25986
25991
26066
26078
26079
26100
26101
26133
26152
26213
26217
26236
26289
26290
26518
26520
26810
26811
26827
26847
26848
26849
26850
26855
26873
26903
26905
27059
27073
27109
27110
27111
27144
27487
27489
27505
27508
27509
27510
27511
27512
27546
27578
27614
27661
27713
27777
27778
27879
27880
27908
27909
27958
27959
28291
28333
28334
28335
28336
28365
28392
28543
28711
28729
28731
28990
28991
29009
29011
29096
29097
29113
29114
29286
29417
29445
29544
29545
29549
29569
29570
29588
29590
29713
29749
29935
29936
29980
29981
30221
30222
30223
30413
30416
30417
30418
30419
30420
30437
30439
30733
30752
30756
30781
30807
30898
30899
30966
30967
31271
31272
31293
31294
31310
31364
31365
31441
31443
31548
31549
31560
31595
31804
31904
31930
32036
32038
32188
32205
32306
32375
32381
32386
32464
32476
32485
32500
32506
32507
32508
32509
32516
32521
32592
32601
32647
32669
32689
32690
32699
32704
32735
32743
32748
32754
32864
32865
32866
32867
32870
33416
33436
33439
33488
33508
33584
33587
33588
33607
33742
33810
33811
34147
34212
34593
34615
35270
35396
35439
35440
35441
35442
35463
35470
35616
35618
35635
35661
35670
35936
36002
36003
36004
36005
36481
36509
36521
36898
36904
37159
37183
37204
37208
37217
37314
37590
37593
37599
37600
37601
37602
37610
37611
37612
37724
37729
37748
37749
37750
37751
37777
37788
37837
37847
37848
38262
38328
38389
38548
38549
38806
38823
38862
38870
38898
38919
38924
38929
38930
38931
38932
38964
39047
39469
39545
39554
39726
39734
39739
39740
39741
39742
39746
39939
39969
39978
40038
40061
40308
40351
40352
40353
40354
40461
40472
40526
40980
41007
41008
41089
41090
41091
41092
41135
41137
41153
41179
41187
41435
41466
41478
41552
41576
41577
41578
41579
41584
41911
41947
41949
42183
42323
42423
42441
42612
42615
42621
42622
42623
42624
42632
42633
42634
42773
42907
42912
42931
42932
42933
42934
43122
43143
43415
43466
43469
43477
43550
43560
43561
43644
43664
43706
43714
44043
44254
44267
44289
44329
44330
44331
44332
44623
44743
44899
44908
45242
45259
45264
45269
45270
45271
45272
45701
46084
46092
46098
46099
46100
46101
46104
46160
46193
46952
47351
47352
47353
47354
47899
47923
48438
48505
48507
48513
48516
48518
48535
48539
48540
48546
48547
48548
48549
48552
48553
48585
48586
48589
48592
48593
48596
48619
48620
48623
48625
48626
48627
48646
48647
48648
48650
48660
48663
48747
48753
48783
48793
48820
48830
48848
48878
48881
48901
48927
49078
49083
49087
49378
49379
49381
49403
49404
49417
49422
49423
49426
49442
49443
49450
49454
49458
49492
49559
49563
49568
49608
49609
49616
49619
49620
49621
49640
49642
49658
49661
49665
49689
49744
49745
49749
49766
49767
50106
50126
50322
50333
50352
50355
50462
50464
50478
50479
50483
50568
50572
50597
50600
50697
50698
50717
50719
50737
50786
50803
50806
50809
50814
50815
50816
50817
50887
50906
51247
51272
51367
51371
51398
51459
51461
51477
51478
51494
51495
51521
51522
51592
51593
51595
51619
51621
51642
51664
51759
51771
51778
51808
51982
51985
52002
52003
52056
52061
52080
52132
52133
52160
52296
52297
52385
52386
52622
52625
52639
52649
52757
52777
53350
53351
53409
53464
53615
53617
53632
53633
53637
54019
54190
54191
54257
54281
54282
54487
54488
54506
54507
54523
54525
54553
54555
54597
54601
54602
54605
54606
54745
54760
54813
54816
54842
54845
54891
54892
54920
54924
55064
55068
55144
55150
55157
55247
55256
55260
55280
55283
55334
55340
55344
55349
55353
55354
55376
55386
55391
55416
55586
55876
55881
55886
55892
55906
55907
55909
55914
55919
55942
56076
56077
56097
56098
56130
56133
56150
56153
56155
56784
56802
56804
56817
56818
56820
56840
56907
56909
56929
57007
57008
57009
57014
57016
57031
57045
57047
57066
57083
57101
57116
57119
57120
57122
57128
57129
57132
57133
57144
57511
57526
57558
57576
57788
57802
57823
57835
57934
57948
57974
57986
58317
58342
58358
58375
58398
58435
58483
58600
58645
58978
58993
59003
59024
59189
59203
59387
59407
59426
59456
59458
59469
59479
59485
59488
59508
59509
59516
59517
59561
59562
59567
59576
59591
59601
59622
59624
59632
59634
59980
59998
60049
60053
60067
60069
60161
60176
60182
60190
60213
60217
60248
60693
60702
60895
60896
61189
61193
61205
61208
61281
61365
61366
61377
61390
61399
61409
61535
61540
61600
61622
61629
61633
61711
61728
61738
61747
61844
61853
61998
62022
62023
62040
62042
62048
62050
62563
62818
62857
62859
62861
62901
62902
62965
62969
62977
62979
63124
63130
63137
63144
63163
63165
63171
63172
63193
63194
63223
63232
63235
63251
63254
63273
63277
63283
63284
63757
63759
63760
63770
63781
63805
63824
64139
64159
64160
64168
64170
64188
64190
64200
64264
64267
64291
64294
64385
64426
64443
64466
64571
64582
64840
64860
65062
65065
65069
65092
65106
65136
65138
65149
65157
65165
65174
65191
65192
65199
65200
65218
65223
65230
65233
65557
65558
65576
65577
65593
65605
65607
65620
65622
65623
65680
65792
65796
65825
65831
65846
65852
65883
65888
65890
65911
65919
65940
65942
65950
65952
66323
66339
66483
66486
66509
66510
66680
66697
66796
66800
66814
66816
66851
66852
66859
66864
66877
66880
66996
66997
67006
67023
67033
67042
67263
67271
67612
67616
67628
67631
67689
67718
67734
67737
67739
67745
67746
67747
67748
67768
67790
67797
67801
67815
67825
67885
67886
67905
67907
67918
67930
67939
67948
67978
67979
67991
67993
67995
68035
68036
68092
68093
68095
68119
68121
68126
68134
68144
68148
68175
68176
68178
68184
68185
68198
68201
68211
68213
68526
68528
68534
68536
68547
68571
68976
68986
69005
69017
69105
69125
69241
69877
69884
69893
69901
69913
69917
69924
69925
70866
70869
70887
70888
70907
70909
70915
70919
70945
70950
70960
70967
71062
71080
71097
71098
71099
71111
71116
71174
71175
71449
71450
71451
71452
71784
71785
71786
71787
71814
71815
71816
71817
71837
71838
71839
71840
71865
71866
71867
71868
71922
71923
71924
71925
71952
71953
71954
71955
71981
71982
71983
71984
72009
72010
72011
72012
72050
72278
72325
72391
72441
72570
72833
72834
72835
72836
72938
72943
72954
72962
73009
73011
73212
73219
73222
73223
73228
73257
73262
73265
73268
73269
73272
73273
73301
73304
73309
73313
73338
73343
73346
73352
73353
73378
73383
73388
73413
73419
73420
73423
73424
73428
73434
73435
73439
73468
73472
73481
73501
73505
73513
73530
73531
73540
73542
73543
73546
73547
73551
73581
73585
73590
73616
73621
73625
73652
73656
73661
73692
73696
73705
73723
73729
73730
73735
73745
73767
73771
73775
73781
73782
73803
73808
73810
73816
73817
73820
73821
73848
73852
73856
73882
73887
73894
73896
73897
73900
73901
73926
73930
73936
73937
73941
73967
73970
73971
73973
73975
73978
73979
73983
74010
74020
74045
74046
74048
74056
74057
74084
74090
74092
74231
74234
74274
74275
74279
74953
74996
75042
75046
75048
75049
75057
75060
75070
75072
75186
75188
75189
75218
75227
75241
75242
75606
75644
75772
75790
75791
75812
75815
75836
75858
75902
75904
75913
75915
75932
75937
75949
75951
76278
76309
76353
76372
76400
76405
76412
76415
76553
76556
76599
76602
76604
76606
76607
76663
76694
76712
76733
77118
77124
77131
77371
77374
77401
77402
77406
77461
77464
77480
77483
77485
77707
77732
77734
77738
77740
77755
77757
77761
77763
77936
77975
78038
78040
78044
78046
78051
78053
78056
78057
78092
78093
78097
78098
78106
78108
78111
78112
78138
78144
78148
78164
78165
78189
78191
78223
78238
78242
78260
78261
78283
78365
78369
78378
78381
78384
78385
78388
78391
78540
78571
78878
78912
78934
78944
78955
78965
78980
79071
79073
79075
79077
79078
79461
79481
79777
79785
80260
80290
80304
80316
80325
80348
80366
80373
80394
80395
80422
80426
80435
80474
80476
80512
80535
80537
80552
80554
80600
80605
80611
80613
80629
80631
80633
80634
80723
80995
81006
81037
81038
81040
81045
81046
81047
81048
81278
81281
81346
81349
81371
81373
81491
81502
81550
81551
81571
81573
81593
81597
81605
81607
81624
81626
81628
81629
81665
81668
81676
81679
81689
81711
81725
81727
81734
81745
81747
81774
81776
81778
81779
81787
81788
81793
81794
81803
81806
81808
81811
81823
81824
81828
81829
81870
81871
81876
81877
81880
81883
81887
81889
82496
82523
84554
84577
84588
84589
84618
84620
84630
84635
84642
84645
84716
84717
84728
84729
84760
84761
84781
84783
84787
84801
84810
84816
84835
84870
84887
84890
84894
84896
84900
84903
84906
84907
84938
84939
84942
84943
84946
84948
84955
84956
84981
84983
84990
84993
84995
84997
85007
85009
85018
85020
85023
85025
85038
85041
85045
85047
85053
85064
85072
85080
85087
85095
85103
85110
85130
85171
85191
85192
85207
85209
85564
85569
85581
85583
85622
85624
85637
85639
85748
85762
85773
85799
86653
86682
86727
86733
86746
86771
86912
86927
86946
86950
86957
86960
86962
86963
86966
86969
86985
86989
86997
87000
87001
87004
87008
87010
87025
87030
87038
87042
87044
87045
87049
87051
87066
87067
87070
87072
87084
87085
87089
87090
87098
87101
87105
87107
87123
87127
87129
87131
87198
87199
87202
87203
87206
87208
87210
87211
87302
87316
87483
87485
87492
87494
87515
87516
87518
87521
87522
87777
87800
87809
87814
87830
87844
87860
87864
87876
87879
87900
88116
88133
88171
88190
88739
88755
88779
88795
88831
88850
88865
88886
88942
88974
88977
88978
88979
88982
88983
88993
88994
89002
89007
89008
89012
89013
89014
89017
89019
89059
89060
89063
89064
89071
89074
89078
89080
89224
89227
89235
89238
89250
89251
89272
89274
89284
89285
89293
89295
90142
90145
90153
90157
90159
90161
90165
90167
90317
90319
90321
90323
90324
90514
90519
90526
90528
90564
90566
90585
90587
90596
90597
90609
90611
90661
90677
90690
90696
90705
90719
90754
90785
90805
90807
90823
90825
90842
90855
90866
90890
90912
90918
90969
90994
91778
91806
91820
91826
91841
91862
91885
91906
91925
91935
92035
92053
92353
92354
92370
92371
92389
92424
92425
92429
92430
92434
92436
92439
92441
92492
92494
92496
92498
92506
92507
92511
92512
92520
92524
92527
92529
92531
92532
92541
92542
92551
92553
92558
92560
92568
92569
92573
92574
92582
92585
92588
92591
92605
92606
92609
92610
92619
92620
92623
92624
92633
92635
92638
92641
92688
92690
92694
92696
92699
92701
92704
92706
93007
93033
93487
93494
93506
93515
93533
93570
93709
93710
93737
93739
93769
93774
93775
93777
93797
93799
93804
93805
93997
93999
94008
94010
94225
94226
94246
94248
94268
94271
94280
94282
94299
94300
94303
94304
94435
94438
94446
94449
94459
94481
94495
94496
94504
94521
94523
94575
94576
94580
94581
94588
94591
94595
94597
94606
94609
94611
94613
94615
94616
94620
94621
94636
94639
94641
94645
94650
94651
94661
94662
94694
94712
94721
94740
94755
94762
94775
94783
94789
94796
94802
94811
94831
94872
95219
95221
95230
95232
95466
95495
95539
95551
95559
95580
95727
95742
96379
96383
96402
96404
96437
96439
96452
96454
96490
96494
96495
96497
96503
96506
96509
96511
96526
96528
96535
96539
96540
96542
96546
96548
96563
96565
96567
96570
96576
96578
96586
96589
96593
96595
96604
96606
96658
96663
96669
96671
96790
96812
96849
96853
96862
96865
96874
96876
96880
96881
96890
96891
96893
96895
96906
96907
96910
96911
96920
96922
96926
96928
96944
96946
96949
96952
97021
97022
97026
97027
97029
97030
97032
97034
97045
97049
97056
97059
97060
97063
97066
97068
97254
97285
97405
97421
97440
97452
97511
97542
98276
98277
98288
98290
98307
98308
98309
98332
98333
98394
98411
98445
98479
98483
98485
98492
98499
98520
98544
98547
98555
98559
98561
98563
98567
98569
98611
98612
98615
98616
98620
98622
98628
98631
98640
98642
98644
98645
98653
98654
98659
98660
98669
98673
98675
98678
98681
98682
98692
98693
98716
98732
98745
98755
98757
98775
98812
98973
98977
98991
98993
99022
99023
99044
99046
99054
99055
99067
99069
99321
99345
99361
99366
99379
99382
99499
99503
99509
99512
99530
99532
99546
99548
99593
99594
99602
99604
99794
100321
100350
100367
100383
100491
100494
100496
100498
100501
100502
100512
100513
100521
100525
100528
100531
100533
100534
100537
100538
100560
100561
100565
100566
100570
100572
100574
100577
100626
100629
100635
100638
100640
100641
100645
100646
100661
100664
100667
100670
100683
100684
100687
100688
100698
100699
100702
100703
100712
100714
100717
100720
100767
100769
100773
100775
100778
100780
100783
100785
100798
100813
101265
101283
101291
101296
101307
101818
101842
101864
101870
101899
101920
102606
102616
102630
102633
102646
102768
102789
102807
102816
102861
102864
102866
102868
102875
102877
102886
102888
102927
102937
102939
102942
102949
102951
102959
102965
102969
102976
102981
102988
102992
103016
103028
103033
103041
103046
103052
103056
103066
103075
103078
103084
103090
103105
103108
103115
103120
103125
103130
103134
103140
103154
103164
103170
103184
103188
103198
103317
103328
103334
103340
103345
103349
103361
103365
103371
103385
103394
103398
103406
103427
103443
103449
103454
103460
103467
103474
103480
103489
103500
103505
103510
103515
103539
103557
103561
103570
103579
103583
103608
103611
103627
103631
103636
103647
103659
103668
103673
103677
103755
103771
104088
104099
104107
104141
104149
104158
104163
104170
104174
104186
104196
104200
104215
104220
104229
104233
104236
104242
104247
104274
104283
104293
104300
104304
104314
104321
104324
104335
104353
104366
104374
104380
104385
104399
104410
104414
104421
104424
104434
104440
104443
104450
104455
104461
104464
104475
104483
104486
104493
104505
104515
104519
104526
104530
104540
104547
104550
104556
104561
104566
104569
104582
104590
104596
104601
104615
104626
104630
104637
104640
104650
104656
104659
104666
104671
104677
104680
104691
104699
104702
104709
104721
104731
104735
104742
104746
104756
104763
104766
104772
104777
104782
104785
104798
104806
104812
104817
104821
104831
104837
104841
104864
104875
104888
104898
104903
104910
104929
104941
104953
104958
104964
104978
104992
104995
105005
105015
105019
105026
105049
105066
105072
105078
105093
105098
105104
105109
105118
105123
105127
105133
105141
105144
105150
105297
105303
105310
105315
105328
105329
105350
105352
105365
105370
105377
105380
105449
105451
105453
105454
105512
105517
105529
105536
105540
105550
105560
105565
105569
105584
105590
105601
105606
105611
105614
105626
105632
105642
105648
105652
105658
105663
105668
105673
105674
105679
105684
105694
105695
105697
105703
105712
105720
105722
105736
105944
106057
106062
106067
106101
106160
106171
106219
106243
106398
106400
106505
106541
106542
106691
106710
106715
106865
106866
106889
106890
106997
106998
107112
107121
107122
107123
107124
107127
107141
107146
107166
107167
107186
107187
107404
107421
108112
108113
108128
108130
108138
108139
108140
108286
108288
108306
108308
108521
108525
108541
108614
108649
108754
108758
108762
108763
108764
108765
108782
108783
108810
108811
108830
108831
108926
108927
108954
108955
109255
109275
109407
109432
109675
109693
109703
109851
109862
109863
109864
109889
110005
110011
110015
110023
110103
110108
110113
110119
110541
110545
110562
110589
110590
110592
110598
110599
110600
110602
110621
110647
110652
110660
110672
110677
110682
110734
110795
110796
110797
110798
110799
110807
110823
110824
110874
110883
110884
110885
110886
110889
110903
110907
110908
110910
110917
110929
110930
111268
111282
111294
111315
111324
111335
111336
111337
111363
111366
111385
111952
111953
111954
111955
111956
111957
111958
111960
111965
111967
111968
111969
111970
111971
111986
112356
112387
112433
112435
112526
112540
112542
112544
112552
112559
112575
112577
112585
112586
112587
112588
112589
112597
112976
112977
113003
113071
113072
113076
113082
113084
113121
113156
113461
113483
113484
113485
113486
113489
113510
113526
113528
113537
113539
113543
113554
113555
113562
113564
113590
113593
113596
113598
113601
113617
113627
113629
113631
113644
113692
113693
113732
113734
113735
113796
113801
113802
113803
113804
113808
113819
113820
114568
114586
114609
114622
114623
114624
114625
114626
114627
114629
114645
114650
114673
114684
114685
114686
114700
115019
115030
115031
115032
115046
115069
115093
115119
115122
115127
115128
115129
115130
115137
115701
115702
115704
115719
115796
115822
116497
116498
116499
116500
116501
116509
116525
116526
116540
116549
116550
116551
116552
116555
116569
116585
116587
116592
116595
116603
116617
116656
116659
116661
116778
116807
116809
116855
116863
116865
116867
116880
116883
117028
117029
117051
117053
117057
117058
117059
117060
117061
117069
117250
117251
117277
117307
117309
117312
117317
117319
117430
117470
117738
117760
117761
117762
117763
117766
117788
117795
117796
117812
117821
117824
118107
118108
118147
118149
118150
118321
118326
118335
118336
118337
118338
118349
118353
118414
118422
118423
118424
118425
118426
118433
118434
118450
118452
118459
118460
118483
118486
118489
118491
118499
118519
118525
118527
118529
118541
119205
119209
119214
119215
119216
119217
119227
119293
119295
119297
119312
120264
120265
120266
120267
120272
120274
120275
120285
120293
120313
120324
120325
120326
120347
121018
121882
121901
122047
122048
122049
122050
122070
122075
122076
122077
122078
122082
122099
122100
122224
122299
122300
122303
122308
122309
122311
122312
122315
122319
122353
122358
122363
122408
122409
122412
122413
122421
122422
122427
122462
122467
122472
122513
122518
122519
122523
122538
122553
122554
122557
122559
122567
122605
122610
122615
122652
122656
122661
122696
122701
122706
122741
122742
122745
122749
122750
122755
122756
122759
122787
122788
122791
122794
122795
122799
122800
122803
122831
122835
122840
122883
122887
122902
122919
122920
122923
122927
122928
122933
122934
122937
122969
122970
122971
122976
122977
122985
122986
122989
123006
123010
123038
123041
123045
123050
123055
123095
123096
123099
123104
123105
123109
123110
123113
123114
123117
123118
123119
123120
123123
123154
123158
123159
123166
123167
123171
123176
123209
123210
123213
123216
123251
123254
123258
123260
123261
123264
123306
123309
123312
123326
123327
123894
123896
123899
123924
123928
123930
123956
124111
124128
124682
124684
124685
124688
124695
124696
124697
124698
124799
124802
124808
124809
124810
124811
124867
124874
124882
124892
124899
124901
124903
124904
124905
124906
125074
125117
125129
125166
125169
125170
125172
125173
125687
125733
125905
125919
125922
125928
125931
125948
125955
125957
125958
125960
125962
126351
126385
126628
126631
126653
126679
126694
126700
126707
127102
127640
127645
127650
127654
127663
127679
127680
127925
128191
128193
128199
128202
128209
128210
128211
128212
128424
128584
128600
128616
128617
128620
128621
128622
128623
128626
128637
128640
128642
129072
129077
129079
129083
129099
129334
129336
129427
129441
129444
129450
129453
129573
129707
129802
129804
129817
129823
129825
129827
129861
129874
130192
130205
130206
130207
130208
130234
130239
130268
130322
130338
130344
130351
130743
130770
130783
130810
130896
130899
131237
131247
131301
131355
131479
131484
131485
131486
131492
131498
131499
131500
132183
132196
132199
132200
132208
132209
132220
132252
132265
132279
132335
132343
132345
132524
132527
133253
133304
133376
133379
133400
133403
133405
133421
133462
134288
134362
134363
134364
134365
135381
135384
135464
135467
135474
135476
135477
135478
135479
135487
135509
135510
135517
135520
135521
135522
135551
135552
135561
135567
135570
135574
135616
135650
135654
135655
135664
135670
135794
135797
135798
135799
135800
135803
135805
135809
135820
135821
135824
135826
135956
135981
136032
136041
136044
136045
136046
136047
136050
136057
136059
136062
136127
136129
136184
136189
136195
136200
136209
136259
136265
136295
136296
136303
136306
136307
136308
136318
136319
136838
136853
136869
136872
136873
136876
136885
136887
137050
137084
137087
137109
137114
137140
137857
137876
137883
137910
138019
138043
138054
138055
138056
138084
138106
138121
138132
138154
138156
138159
138188
138204
138220
138221
138224
138225
138226
138227
138230
138241
138244
138246
138746
138748
138754
138756
138757
138758
138759
138773
139048
139057
139303
139308
139310
139314
139330
139548
139563
139576
139601
139604
140245
140259
140318
140323
140327
140332
140343
140355
140370
140416
140433
140725
140737
141129
141519
141521
141787
141793
141905
141910
141912
141916
141929
141974
141977
141981
141987
141996
142045
142049
142054
142057
142066
142115
142141
142154
142155
142156
142157
142183
142188
142214
142264
142302
142306
142325
142336
142387
143111
143143
143151
143178
143183
143212
143215
143228
143244
143298
143323
143698
143702
143707
143712
143722
143772
143799
143801
143802
143803
143804
143808
143809
143813
143815
143817
143832
143834
144195
144197
144210
144216
144218
144220
144254
144272
144387
144438
144628
144631
144652
144655
144657
144674
144714
145038
145042
145084
145209
145213
145214
145224
145230
145339
145342
145550
145553
145565
145567
145568
145569
145570
145578
145591
145592
145599
145602
145603
145604
145622
145623
145643
145649
145785
145799
145819
145822
146207
146241
146245
146263
146274
146299
146445
146448
146468
146473
146479
146484
146493
146794
146800
146830
146831
146838
146841
146842
146843
146850
146851
147097
147115
147126
147150
147263
147287
147298
147299
147300
147328
147350
147365
147376
147398
147400
147403
147817
147824
147826
147827
147828
147829
147847
147854
147859
147872
147879
147882
147883
147884
147885
147886
148359
148374
148390
148393
148394
148397
148406
148408
148457
148475
148586
148589
148590
148591
148592
148595
148597
148601
148606
148607
148616
148618
148738
148763
148825
148834
148837
148838
148839
148840
148843
148850
148853
148855
148871
148883
148918
148921
148922
148924
148925
149192
149199
149202
149204
149205
149206
149207
149222
149937
149965
149968
149990
150449
150495
150869
150876
150953
150985
150988
151016
151019
151169
151186
151333
151338
151340
151344
151356
151402
151405
151409
151415
151423
151653
151659
152047
152054
152056
152057
152059
152061
152197
152207
152353
152358
152362
152367
152378
152390
152404
152426
152429
152461
152961
152992
153182
153202
153217
153218
153219
153220
153221
153225
153229
153244
153246
153249
153452
153468
154044
154048
154053
154056
154064
154125
154782
154809
154840
154855
154875
154953
155581
155586
155591
155597
155609
155666
155772
155798
155801
155814
155827
155984
156011
156024
156029
156031
156046
156049
156061
156063
156064
156065
156066
156074
156086
156093
156245
156257
156266
156271
156345
156366
156385
156391
156475
156482
156488
156493
156561
156577
156586
156595
156600
156616
156625
156630
156734
156758
156760
156771
156888
156905
156913
157009
157014
157031
157047
157236
157254
157260
157262
157279
157289
157300
157553
157565
157581
157658
157674
157689
157692
157724
157728
157743
157748
158007
158020
158033
158038
158045
158065
158073
158077
158107
158120
158144
158147
158161
158166
158188
158201
158296
158309
158328
158333
158384
158403
158410
158411
158412
158413
158414
158415
158416
158418
158464
158469
158473
158476
158484
158499
158501
158623
158625
158626
158682
158731
158733
158735
158756
158757
158760
158775
158779
158780
158781
158784
158817
158818
158821
158824
158825
158826
158829
158830
158833
158837
158838
158841
158842
158843
158871
158872
158875
158876
158877
158879
158880
158883
158886
158887
158890
158891
158892
158919
158920
158923
158924
158925
158928
158929
158932
158936
158937
158940
158941
158942
158973
158975
158977
158980
158981
158982
158984
158985
158988
159001
159002
159005
159006
159007
159020
159027
159028
159031
159039
159040
159261
159266
159669
159671
159675
159678
159680
159683
159686
159695
159696
159704
159714
159715
159720
159727
159728
159736
159737
159742
159750
159751
159753
159757
159758
159766
159768
159769
159773
159775
159780
159783
159784
159811
159812
159841
159842
160064
160094
160095
160142
160147
160152
160155
160156
160199
160200
160207
160210
160211
160212
160315
160325
160332
160334
160338
160339
160340
160341
160342
160345
160358
160374
161132
161133
161141
161146
161147
161150
161163
161176
161179
161183
161199
161200
161232
161242
161243
161247
161254
161257
161259
161262
161263
161271
161276
161278
161280
161291
161297
161304
161306
161309
161313
161317
161318
161573
161581
161583
161589
161591
162055
162056
162085
162086
162200
162210
162217
162222
162223
162227
162228
162237
162256
162269
162274
162278
162317
162322
162329
163004
163417
163422
163431
163439
163440
163470
163473
163481
163482
163484
163491
163493
163504
163505
163509
163513
163515
163518
163519
163525
163526
163529
163543
163552
163557
163565
163566
163617
163618
163638
163639
163643
163659
163678
163681
163683
163684
163685
163686
163727
163728
163733
163742
163744
163755
163756
163795
163796
164131
164148
164222
164223
164228
164234
164235
164240
164243
164244
164253
164254
164257
164265
164274
164282
164284
164285
164377
164382
164390
164405
164408
164412
164437
164465
164484
164495
165063
165067
165072
165075
165077
165080
165434
165435
165447
165448
165449
165455
165586
165587
165592
165598
165600
165820
165825
165832
165837
165839
165840
165974
165978
165979
165986
165987
165990
165993
165995
166012
166021
166026
166034
166035
166074
166075
166111
166120
166147
166150
166153
166176
166182
166188
166189
166190
166191
166192
166834
166836
166839
166844
166847
166888
166890
166899
166900
166902
166906
166909
166912
166922
166923
166936
166937
166946
166948
166949
166952
167128
167133
167134
167137
167145
167147
167148
167179
167182
167183
167186
167187
167193
167197
167205
167210
167211
167218
167219
167224
167236
167237
167276
167277
167306
167307
167343
167349
167354
167355
167361
167362
167366
167394
167399
167408
167424
167436
167439
167443
167447
167448
167449
167450
167451
167454
167844
167852
167861
168122
168123
168164
168165
168168
168175
168176
168177
168191
168193
168198
168205
168207
168213
168217
168221
168228
168233
168241
168242
168245
168249
168250
168261
168262
168304
168329
168352
168354
168357
168377
168383
168389
168390
168391
168392
168393
168396
168397
168405
168410
168411
168414
168427
168438
168440
168444
168462
168470
168472
168478
168480
168517
168890
168895
168904
169035
169040
169083
169084
169113
169117
169119
169125
169127
169134
169138
169146
169150
169151
169157
169158
169169
169178
169183
169196
169197
169248
169249
169271
169273
169281
169284
169287
169289
169292
169294
169302
169304
169306
169313
169319
169323
169327
169328
169342
169348
169355
169357
169568
169569
169597
169598
169704
169742
169747
169755
169767
169771
169777
169783
169807
169813
169839
169840
169844
169851
169853
169864
169865
169904
169905
170242
170246
170251
170276
170279
170283
170407
170408
170411
170413
170415
170443
170447
170451
170458
170463
170471
170472
170476
170482
170483
170693
170715
170807
170808
170813
170819
170820
170825
170828
170829
170838
170839
170842
170850
170859
170867
170869
170870
170872
170873
170877
170893
170912
170915
170917
170918
170919
170920
170955
170957
170962
170968
170971
170973
170975
170980