/*--------------------------------*- C++ -*----------------------------------*\
| =========                 |                                                 |
| \\      /  F ield         | OpenFOAM: The Open Source CFD Toolbox           |
|  \\    /   O peration     | Version:  2206                                  |
|   \\  /    A nd           | Website:  www.openfoam.com                      |
|    \\/     M anipulation  |                                                 |
\*---------------------------------------------------------------------------*/
FoamFile
{
    version     2.0;
    format      ascii;
    arch        "LSB;label=64;scalar=64";
    class       featureEdgeMesh;
    location    "constant/triSurface";
    object      GeoShaft_ss.eMesh;
}
// * * * * * * * * * * * * * * * * * * * * * * * * * * * * * * * * * * * * * //


// points:

1185
(
(10.2171754837 -1.21544849873 -83.4195022583)
(24.3725757599 -28.8404006958 -67.5901031494)
(-37.1871643066 -6.72859954834 -67.5575790405)
(-26.3568477631 38.8965682983 80.3316345215)
(-12.7550678253 35.6489753723 68.5118637085)
(-10.2171754837 -1.21544861794 84.4995040894)
(46.8638420105 3.37741589546 80.3316345215)
(50.0305557251 0.00152488762978 77.0148239136)
(37.1751365662 -6.68506526947 68.6405334473)
(-8.28138637543 -7.04447698593 70.2286911011)
(-19.076467514 -42.7552909851 78.9827346802)
(-20.5069904327 -42.273979187 80.3316345215)
(4.78782224655 1.9768371582 215.540008545)
(4.47331237793 -2.46280384064 215.540008545)
(0.282319575548 5.27534294128 215.540008545)
(-3.80881428719 3.41981077194 215.540008545)
(3.21094751358 -2.73729014397 -85.4667282104)
(-3.86842393875 1.88459742069 -85.4755706787)
(27.4889354706 37.898349762 -77.9027328491)
(25.9074440002 42.3598136902 -77.1385421753)
(23.5675773621 -44.1282196045 -74.7895812988)
(19.0764656067 -42.7552909851 -77.9027328491)
(23.7309741974 -43.6164054871 -77.1385574341)
(-47.0061340332 4.75857591629 -77.8043670654)
(-50.1058921814 0.333595842123 -76.2782821655)
(-46.127040863 3.52364563942 -79.3978652954)
(-21.6345081329 -27.3488826752 70.8802185059)
(-24.5025787354 -28.8544082642 68.5463027954)
(-27.4889354706 37.898349762 78.9827346802)
(49.5375671387 2.89122438431 77.0277023315)
(-6.11025762558 -1.89949011803 65.5275421143)
(-0.702324032784 -6.19833040237 65.53565979)
(6.31429052353 3.44928920981e-08 65.5326919556)
(-0.702323973179 6.19832992554 65.53565979)
(-4.83093500137 3.69845938683 65.5392990112)
(-1.06757509708 4.98307609558 -63.4174537659)
(-0.702324032784 6.19833040237 85.544342041)
(6.31429052353 -3.44928743345e-08 85.5473098755)
(-0.702323973179 -6.19832992554 85.544342041)
(-4.83093500137 -3.69845938683 85.5407028198)
(0.702324450016 6.19833230972 -64.4556655884)
(8.90431022644 4.81129550934 -78.1837387085)
(2.01836943626 9.89171218872 -68.3270645142)
(1.90452528 10.4962501526 -69.1212158203)
(-0.201433539391 10.1675014496 -70.6698226929)
(7.65335083008 6.48700666428 -80.5481491089)
(8.15528774261 6.95309066772 -79.6222610474)
(12.8621721268 32.408946991 -69.8056716919)
(12.8094329834 35.5254096985 -67.5605773926)
(14.400554657 32.5311546326 -68.181137085)
(13.9126787186 35.2649116516 -65.817489624)
(-0.542631387711 -10.068315506 -78.2260131836)
(-8.69381713867 -5.27325725555 -70.6236801147)
(-9.57762241364 -3.19739603996 -68.3341064453)
(-8.61880588531 5.30576181412 -78.1837387085)
(8.92124652863 -4.8661813736 -70.6437988281)
(7.67851781845 -6.64235162735 -68.5590820312)
(1.79117047787 -9.86957454681 -80.553062439)
(-9.44279670715 3.38379263878 -80.5531005859)
(1.94392609596 -10.5391530991 -79.6223373413)
(0.144411683083 -10.5249137878 -78.132850647)
(8.31875133514 -7.21208524704 -69.1277084351)
(-10.0992889404 3.5862057209 -79.622177124)
(-10.0011539459 -3.57806587219 -69.0864257812)
(-8.90430736542 4.81130218506 79.2637405396)
(-1.90452861786 10.496254921 70.2012252808)
(-2.01837301254 9.89171123505 69.4070663452)
(0.201556622982 10.16746521 71.7498245239)
(-8.15529251099 6.95309448242 80.702255249)
(-7.65335226059 6.48700332642 81.6281509399)
(-12.8621606827 32.4089279175 70.8856811523)
(-14.3939495087 32.5325965881 69.2682723999)
(8.61880397797 5.3057641983 79.2637405396)
(-8.92127990723 -4.86603736877 71.7237930298)
(-7.68262434006 -6.56093788147 69.5929412842)
(0.261935383081 -10.1431760788 79.2362365723)
(8.69373512268 -5.27333831787 71.7036743164)
(9.57762241364 -3.19739413261 69.4141082764)
(9.44279575348 3.38379597664 81.6330947876)
(-1.79117226601 -9.86957359314 81.6330566406)
(10.099281311 3.5862057209 80.7021865845)
(10.0011529922 -3.57806420326 70.1664276123)
(-1.94393050671 -10.5391578674 80.7023391724)
(2.51759123802 -4.49273443222 -63.4775390625)
(-6.11025762558 1.89949011803 85.5524597168)
(4.74542236328 2.56456756592 -84.4749755859)
(3.91767096519 -3.40882968903 -84.4636764526)
(-1.89194655418 -5.05123758316 -84.474609375)
(-5.2664065361 0.880427360535 -84.4712142944)
(-1.00877416134 5.13883256912 -84.4653015137)
(0.702324509621 -6.19833230972 -64.4556655884)
(9.05529880524 5.41948509216 -78.1726150513)
(-0.761665821075 9.99388885498 -70.6304092407)
(-9.05531311035 5.41951036453 79.2526168823)
(0.761665344238 9.99388885498 71.7104187012)
(3.68750810623 9.37468910217 -65.4485321045)
(7.8332862854 6.42009830475 -65.4512023926)
(8.91967010498 3.95504403114 -84.2030410767)
(2.05917334557 -9.89040756226 -75.6814956665)
(5.00967216492 -8.79663181305 -72.4477767944)
(21.6345272064 -27.3489074707 -69.800201416)
(20.3143234253 -27.8922939301 -68.4381713867)
(21.6720066071 -29.1815242767 -67.6722488403)
(23.5839710236 -29.6811904907 -65.817489624)
(-34.4927711487 -5.06867790222 -69.811416626)
(-34.312587738 -3.64656996727 -68.4381713867)
(-36.1079444885 -4.17774534225 -67.6722488403)
(-37.5509223938 -5.68349742889 -65.6987075806)
(-25.0165615082 43.3269958496 77.0148010254)
(-3.68750834465 9.37468910217 66.5285339355)
(-7.8332862854 6.42009830475 66.5311965942)
(-8.91967201233 3.95504331589 85.2830429077)
(-2.05918169022 -9.89040470123 76.7614898682)
(34.4927482605 -5.06867694855 70.8914260864)
(34.3118400574 -3.65256357193 69.5239868164)
(-5.88411045074 -8.85440444946 73.3096847534)
(-20.3191337585 -27.8886432648 69.5239868164)
(-21.6719150543 -29.1814689636 68.7523193359)
(-23.6069965363 -29.6761989594 66.8925857544)
(-23.7390880585 -44.1300125122 75.7114334106)
(-3.7496714592 3.37349796295 86.5118713379)
(-5.73241710663 7.35214519501 85.5460662842)
(-3.79814147949 -3.34119772911 215.540008545)
(-5.09762430191 -0.0480062887073 215.540008545)
(-1.1210129261 -4.98189306259 215.540008545)
(1.87430465221 -4.66165208817 215.540008545)
(3.9497551918 1.02774429321 -85.4614944458)
(-2.1866338253 -3.78736114502 -85.4816055298)
(1.13290679455 4.13095092773 -85.4713516235)
(8.14794254303 -4.37244606018 -84.4636383057)
(-3.61329007149 -9.5943403244 -83.4562683105)
(-6.57554149628 -6.64323759079 -84.467628479)
(-9.10999774933 -4.55659627914 -83.4738311768)
(5.73223924637 7.35191631317 -84.4663467407)
(-8.14794445038 -4.37244796753 85.5436325073)
(3.61329007149 -9.5943403244 84.5362625122)
(6.57554340363 -6.64323949814 85.5476226807)
(9.10999774933 -4.55659627914 84.5538253784)
(26.4323558807 42.4742431641 -74.7895584106)
(25.9024734497 37.6571540833 -79.4778442383)
(19.6608161926 -41.2607765198 -79.4778442383)
(-36.1954193115 -12.0131978989 -57.5534210205)
(-36.2980384827 -11.3666973114 -61.5150566101)
(-33.6578712463 -17.8908615112 -52.5947303772)
(-32.3994750977 -19.9276199341 -46.5266189575)
(-26.7183666229 -27.3915977478 -34.8065338135)
(-16.3117847443 -34.4821243286 -18.9850387573)
(-11.2161331177 -36.3320236206 -12.196015358)
(-0.832607269287 -38.1344337463 1.15880954266)
(-1.72091376781 -38.0367012024 -3.17493677139)
(-7.74067306519 -37.2445297241 -10.8104600906)
(8.50175857544 -37.0987663269 12.8683757782)
(15.8885450363 -34.6605911255 22.6247444153)
(25.3054542542 -28.5716304779 36.7864227295)
(31.5924243927 -21.2312870026 48.8460159302)
(35.6758613586 -13.5412225723 56.5892372131)
(31.0802135468 -22.148311615 44.3998222351)
(35.8973045349 -12.755613327 60.798992157)
(37.4971847534 -5.58394670486 66.8956604004)
(26.9027690887 -27.0948829651 36.2775154114)
(15.8295621872 -34.7226867676 19.3344230652)
(6.87058448792 -37.4525718689 7.63084936142)
(-17.431854248 -33.9142723083 -23.6353034973)
(-28.2645072937 -25.5970363617 -40.9389152527)
(-50.0344772339 1.32580900192 -74.4657363892)
(-25.0139751434 -43.3284912109 77.0148086548)
(9.27209091187 36.8901252747 -62.818271637)
(7.24490976334 37.4335594177 -57.080242157)
(-4.60821294785 37.8816719055 -45.258556366)
(2.91051411629 37.9250793457 -54.6913452148)
(-21.8999271393 31.1898670197 -21.8846950531)
(-14.5367736816 35.270488739 -32.3714065552)
(-31.0068893433 22.2416820526 -5.83859920502)
(-35.6428604126 13.3493204117 6.79273891449)
(-38.112487793 2.10344266891 21.3694591522)
(-36.8914146423 9.58506298065 14.9559288025)
(-38.1075172424 0.521797597408 26.4725399017)
(-37.0266838074 -9.12431240082 35.4853401184)
(-34.3085250854 -16.5286426544 45.3112564087)
(-35.7220191956 -13.1838188171 43.9930381775)
(-33.7389526367 -17.5621871948 50.0054359436)
(-26.3613891602 -27.4364414215 62.418888092)
(-30.2326545715 -23.1553592682 55.1818580627)
(-2.62546777725 37.9680709839 -44.5660514832)
(-13.8815374374 35.5376167297 -30.0645713806)
(-24.6172370911 29.0842609406 -14.280875206)
(-32.6090888977 19.7882671356 1.15882253647)
(-37.4092178345 -6.99070978165 35.9544219971)
(-31.4430751801 -21.5358295441 55.7505340576)
(-33.6935119629 -37.0804595947 63.8289871216)
(-41.3844490051 -28.2391223907 52.6508369446)
(-39.0421714783 -31.2706317902 59.1498222351)
(-43.8727416992 -24.2819080353 51.0058326721)
(-47.1693458557 -17.165845871 40.8388748169)
(-47.5499610901 -15.4552783966 41.9291687012)
(-49.4101448059 -8.02705192566 34.6636161804)
(-49.840133667 -4.74737262726 28.6815395355)
(-50.0473327637 1.30505943298 25.6670894623)
(-49.859413147 4.63692951202 19.7426662445)
(-48.5027160645 12.6205568314 14.8629283905)
(-47.8932991028 14.5785923004 10.067032814)
(-45.8675575256 19.9263954163 7.33487081528)
(-41.973197937 27.7578430176 -3.73946547508)
(-42.2089271545 26.9388446808 -0.134940221906)
(-36.4533729553 34.3261184692 -9.14961051941)
(-32.3159713745 38.237651825 -17.373041153)
(-28.7499370575 40.9775276184 -18.852191925)
(-24.5788345337 43.624206543 -26.4029045105)
(-20.2331428528 45.8135643005 -28.220582962)
(-13.4597873688 48.282989502 -37.8639526367)
(-12.0398635864 48.5692520142 -36.4786224365)
(-2.83273077011 49.9940567017 -48.0920295715)
(8.94913291931 49.3670158386 -59.6016578674)
(-2.26102256775 50.1091270447 -46.002155304)
(9.37759590149 49.2243270874 -57.1415290833)
(18.8952198029 46.3339309692 -66.5913619995)
(22.3374576569 44.8074455261 -72.9655761719)
(-33.4756088257 -37.3185386658 66.9738311768)
(-13.8968458176 35.2823600769 66.8925933838)
(-26.3481559753 42.6236686707 75.7114257812)
(27.5004138947 -26.2788600922 -62.4955673218)
(28.7959403992 -24.9910736084 -57.0802726746)
(35.1105957031 -14.9500131607 -45.2585639954)
(31.6113586426 -21.1596298218 -54.1986083984)
(38.026638031 0.605451822281 -25.2698001862)
(37.8135261536 -5.04602050781 -32.3713989258)
(33.3741531372 18.3262424469 -2.1068277359)
(37.0287628174 9.57567691803 -14.0285549164)
(29.3822803497 24.1929645538 6.79274225235)
(20.8778896332 31.9546546936 21.3694458008)
(26.7466182709 27.1563682556 14.9559240341)
(19.505651474 32.7411766052 26.472536087)
(10.6114826202 36.6281967163 35.4853019714)
(2.84008526802 37.9763717651 45.3111991882)
(6.4434838295 37.528087616 43.9930419922)
(1.66016411781 37.9998855591 50.0054473877)
(-10.5799751282 36.5478515625 62.4189033508)
(-4.93678665161 37.759929657 55.1818389893)
(34.1940383911 -16.7103366852 -44.5660858154)
(37.717250824 -5.74703025818 -30.0645542145)
(37.4963264465 6.77703857422 -14.2808561325)
(33.4416847229 18.3461685181 1.15882372856)
(12.6504831314 35.8926849365 35.954410553)
(-2.72240042686 38.0374450684 55.5390663147)
(-15.2658414841 47.7196769714 63.8289642334)
(-3.76356244087 49.9595451355 52.6508293152)
(-7.56007623672 49.4468269348 59.1498222351)
(0.907603979111 50.1358604431 51.0058479309)
(8.71864891052 49.4327659607 40.8388404846)
(10.3902816772 48.907119751 41.9292030334)
(17.7534542084 46.8039627075 34.6636047363)
(20.808719635 45.5365104675 28.6815395355)
(26.1538619995 42.689743042 25.6671104431)
(28.9454231262 40.8610420227 19.7426452637)
(35.1810836792 35.6943054199 14.8629283905)
(39.7518310547 30.8503093719 5.66841411591)
(40.1905708313 29.7592353821 7.33482408524)
(44.4341888428 23.0845775604 -0.134944185615)
(46.4762458801 18.5599956512 -7.72704267502)
(47.9539680481 14.4065170288 -9.14957809448)
(49.2727622986 8.86762142181 -17.3730449677)
(49.8625488281 4.40942430496 -18.8521785736)
(50.0690879822 -0.526202857494 -26.4028987885)
(49.7922782898 -5.38435649872 -28.2205753326)
(48.5441818237 -12.484995842 -37.8639717102)
(48.0821342468 -13.8578147888 -36.47864151)
(44.7743034363 -22.4231090546 -48.007724762)
(39.9984321594 -30.0421028137 -56.5827598572)
(44.5262985229 -23.096446991 -46.0021400452)
(37.9407348633 -32.733379364 -57.1415061951)
(34.2714805603 -36.4868812561 -64.797164917)
(30.6787929535 -39.5306739807 -66.5913162231)
(30.8196525574 -39.4568328857 -69.1726150513)
(-15.5810022354 47.6499977112 66.9738388062)
(45.2620582581 5.05163764954 79.1774291992)
(36.1078529358 -4.17769575119 68.7523193359)
(49.7922134399 -5.35459327698 69.071723938)
(47.2553863525 -16.7289047241 58.0002784729)
(46.6022453308 -18.1761932373 59.1498222351)
(42.7710800171 -26.1558952332 50.7441749573)
(42.1045341492 -27.2073287964 46.7000846863)
(37.15965271 -33.4518241882 41.92918396)
(31.6566791534 -38.7769355774 34.6635856628)
(28.6220588684 -41.0961990356 28.1701622009)
(38.2523880005 -32.4624824524 40.5401802063)
(23.8934249878 -43.9948043823 25.6670608521)
(18.4519767761 -46.5563049316 17.2107429504)
(13.3216199875 -48.314868927 14.8629131317)
(8.11502933502 -49.4542312622 6.92332267761)
(5.67696714401 -49.68567276 7.33482408524)
(-2.22525882721 -50.0234222412 -0.134938687086)
(-3.45506691933 -49.9509735107 -4.14137887955)
(-11.5005741119 -48.7326126099 -9.14957809448)
(-12.7472448349 -48.4239425659 -13.1279153824)
(-21.1126289368 -45.386932373 -18.8522109985)
(-23.8102111816 -44.1289710999 -24.487443924)
(-29.5591468811 -40.4291915894 -28.2205963135)
(-34.46484375 -36.3189811707 -37.0979728699)
(-36.042263031 -34.7114639282 -36.4786109924)
(-40.9140625 -28.7757740021 -46.6412696838)
(-42.2652587891 -27.0126838684 -46.0021362305)
(-44.6897163391 -22.6848278046 -53.4603843689)
(-47.3183059692 -16.4909572601 -57.1414985657)
(-48.6385917664 -11.9212465286 -64.3660430908)
(-49.57396698 -6.80326032639 -66.5913314819)
(49.0566101074 -10.3314590454 66.9738311768)
(7.98316907883 6.80831766129 -76.4956283569)
(8.97139644623 5.08061647415 -78.1803359985)
(9.00396347046 4.43842792511 -78.1651382446)
(1.91736662388 10.4371881485 -69.0407791138)
(1.87765264511 10.2033176422 -68.8349685669)
(1.82131111622 9.85979366302 -68.2013473511)
(2.02033543587 10.8589391708 -69.1602554321)
(0.19277215004 10.5549211502 -70.6144180298)
(-0.118239201605 10.2672567368 -70.615447998)
(7.90937900543 6.69305086136 -79.9185943604)
(8.26806735992 6.99163961411 -79.6115112305)
(9.60476493835 26.6982078552 -70.0610580444)
(12.4824485779 31.6540107727 -69.8760299683)
(12.9971389771 33.0922660828 -69.4817047119)
(13.0126829147 34.6402626038 -68.4643936157)
(12.8006944656 35.2627639771 -67.8126373291)
(12.5434350967 35.6548805237 -67.2645645142)
(12.1632738113 35.9810676575 -66.6201324463)
(7.48206806183 20.2675037384 -68.8521652222)
(13.7863254547 31.0957279205 -68.4632339478)
(14.1474666595 31.9367446899 -68.2966156006)
(14.3936767578 33.0245399475 -67.8468780518)
(14.3972120285 33.9165725708 -67.2587890625)
(14.1433010101 34.8224029541 -66.3770217896)
(13.5926961899 35.4682350159 -65.3385009766)
(-7.00475120544 -7.15824460983 -65.4577789307)
(-8.41408920288 -5.42730331421 -65.4558410645)
(1.92089653015 -10.6561479568 -79.6115264893)
(1.84165585041 -10.1962127686 -79.9186401367)
(-0.417512625456 -10.1201267242 -78.1683807373)
(-0.0857452079654 -10.3097705841 -78.1803359985)
(0.165764570236 -10.551864624 -78.1726150513)
(8.37318992615 -7.15199518204 -69.1623382568)
(8.12493419647 -6.91897821426 -69.0650405884)
(7.84306812286 -6.67796707153 -68.7745819092)
(7.64999103546 -6.4787979126 -68.0936126709)
(8.99833297729 -5.33069086075 -70.6128616333)
(8.95758533478 -4.9149107933 -70.602104187)
(21.1332530975 -26.5723438263 -69.8916168213)
(22.1601753235 -27.8019866943 -69.4817047119)
(23.4930114746 -28.5894489288 -68.4643936157)
(24.1381111145 -28.7171115875 -67.8126296997)
(24.6063041687 -28.6903762817 -67.2645797729)
(25.0788726807 -28.5242404938 -66.6201477051)
(13.8111276627 -16.6133899689 -68.8521652222)
(20.0365257263 -27.4871692657 -68.4632339478)
(20.5842990875 -28.2204380035 -68.2966156006)
(21.40325737 -28.9775619507 -67.8468704224)
(22.1739997864 -29.4266338348 -67.2587966919)
(23.0854244232 -29.659658432 -66.3770294189)
(23.9200363159 -29.5057430267 -65.3385162354)
(-10.1890268326 3.66455745697 -79.6114959717)
(-9.75111484528 3.50322341919 -79.918510437)
(-8.88574504852 5.22909927368 -78.1803283691)
(-9.22107315063 5.13237524033 -78.1726150513)
(-8.35272979736 5.57313680649 -78.165145874)
(-10.3803777695 -3.67539310455 -69.1623306274)
(-10.0544548035 -3.57689189911 -69.0650177002)
(-9.78952312469 -3.474214077 -68.8574142456)
(-9.54856300354 -3.39127969742 -68.4602890015)
(-9.31734275818 -5.10484933853 -70.6193389893)
(-8.88832759857 -5.2073931694 -70.6050949097)
(-8.25675678253 -5.66908025742 -70.6262893677)
(-26.3807888031 -5.03645801544 -70.1075057983)
(-33.6544189453 -5.01688861847 -69.8760223389)
(-35.1573104858 -5.29027891159 -69.4817047119)
(-36.5056991577 -6.05082368851 -68.4643859863)
(-36.9388008118 -6.54565811157 -67.8126373291)
(-37.1497459412 -6.96448850632 -67.2645874023)
(-37.2441329956 -7.47863721848 -66.5942611694)
(-21.2932491302 -3.65409255028 -68.8521652222)
(-33.8228607178 -3.60855674744 -68.4632339478)
(-34.7317695618 -3.71630764008 -68.2966079712)
(-35.7969360352 -4.04698419571 -67.8468704224)
(-36.5712165833 -4.48993444443 -67.2587890625)
(-37.228729248 -5.16273403168 -66.3770294189)
(-37.5127410889 -5.9624838829 -65.3385162354)
(-7.98312854767 6.80836391449 77.5755691528)
(-8.97139930725 5.08065891266 79.2603378296)
(-9.00396442413 4.43842363358 79.2451400757)
(-2.02034711838 10.8589677811 70.2402572632)
(-1.9173681736 10.4371843338 70.1207809448)
(-1.87764918804 10.2033147812 69.9149627686)
(-1.82131314278 9.85979652405 69.2813644409)
(-0.192881494761 10.5550518036 71.6944351196)
(0.118223205209 10.2672634125 71.6954498291)
(-8.26804733276 6.99161434174 80.6915206909)
(-7.90936756134 6.69304037094 80.9986190796)
(-25.5539550781 36.9046783447 80.6322555542)
(-26.1187133789 38.8243865967 80.1614990234)
(-26.1767520905 40.8080673218 79.2199172974)
(-25.5693759918 42.5005264282 77.8475036621)
(-24.6841754913 43.4691467285 76.6147003174)
(-9.60430145264 26.6974163055 71.1410903931)
(-12.4824714661 31.6540527344 70.9560317993)
(-12.9971342087 33.0922546387 70.5617141724)
(-13.012717247 34.6400756836 69.5445632935)
(-12.8007392883 35.2626419067 68.8927764893)
(-12.5436124802 35.6546516418 68.3449249268)
(-12.1677865982 35.9777603149 67.7072372437)
(-7.48177433014 20.2670040131 69.9321899414)
(-13.786283493 31.0956516266 69.5432510376)
(8.43350887299 5.40109825134 66.5376358032)
(7.36741161346 6.76174879074 66.5400009155)
(10.1890201569 3.6645565033 80.6914978027)
(9.75110721588 3.50322127342 80.9985198975)
(8.88575553894 5.22909498215 79.2603302002)
(9.22110366821 5.13237380981 79.2526168823)
(8.35274028778 5.57312583923 79.2451477051)
(10.3804330826 -3.67539906502 70.2423400879)
(10.0544242859 -3.57687997818 70.1450042725)
(9.78953170776 -3.47421765327 69.9374313354)
(9.54857349396 -3.39128232002 69.5403213501)
(9.31736373901 -5.1048412323 71.6993408203)
(8.88831615448 -5.20739889145 71.6851043701)
(8.25675201416 -5.66908597946 71.7062911987)
(44.7373695374 3.6780359745 80.6322555542)
(46.6822624207 3.20727682114 80.1614990234)
(48.4291992188 2.26569962502 79.2199172974)
(49.5912132263 0.89339619875 77.8476104736)
(49.9874725342 -0.357461154461 76.6146850586)
(26.3804569244 -5.03645944595 71.1875305176)
(33.6544532776 -5.01688909531 70.9560317993)
(35.1572990417 -5.29027891159 70.5617141724)
(36.5055427551 -6.05069255829 69.5445632935)
(36.9387130737 -6.54555940628 68.8927764893)
(37.1496353149 -6.9642367363 68.3449325562)
(37.2415466309 -7.45126581192 67.7072372437)
(21.2926425934 -3.65409493446 69.9321899414)
(33.8227577209 -3.60855436325 69.5432510376)
(0.417510926723 -10.1201276779 79.2483901978)
(0.085727147758 -10.3097839355 79.2603378296)
(-0.16578014195 -10.5518903732 79.2526168823)
(-8.12493228912 -6.91897630692 70.1450424194)
(-8.37321472168 -7.1520280838 70.2423477173)
(-7.6499915123 -6.47879886627 69.1736068726)
(-7.84308052063 -6.67798089981 69.8546066284)
(-8.99832248688 -5.33061408997 71.6928710938)
(-8.95758342743 -4.91494131088 71.6821136475)
(-1.92089009285 -10.6561203003 80.6915359497)
(-1.84165322781 -10.1962003708 80.9986572266)
(-13.8110370636 -16.6132278442 69.932182312)
(-20.5844783783 -28.2201423645 69.3769760132)
(-20.036485672 -27.4871025085 69.5432510376)
(-21.4032020569 -28.977519989 68.9269256592)
(-22.1738376617 -29.4265708923 68.3389358521)
(-23.0853939056 -29.6596546173 67.457069397)
(-23.9208545685 -29.5054950714 66.4165420532)
(-20.4993057251 -43.537437439 78.1415939331)
(-22.2348823547 -44.0729980469 76.9063186646)
(-18.8173503876 -42.2675437927 78.9632644653)
(-17.7740440369 -41.0057411194 79.2358856201)
(-23.7812328339 -43.9568252563 75.5042037964)
(-19.1834087372 -40.5827140808 80.6322555542)
(5.00081110001 0.390046030283 215.540008545)
(4.80253553391 -1.41643810272 215.540008545)
(3.9972140789 3.00371098518 215.540008545)
(4.70004987717 1.72166848183 215.540008545)
(3.22683644295 3.83851695061 215.540008545)
(1.98499417305 4.59678649902 215.540008545)
(0.27371108532 5.00717163086 215.540008545)
(-1.00012850761 4.89895343781 215.540008545)
(-4.13452005386 -2.82425045967 215.540008545)
(-4.81609296799 -1.36963510513 215.540008545)
(-3.16222596169 -3.87302565575 215.540008545)
(-2.21445393562 -4.49920892715 215.540008545)
(-1.00012850761 -4.89895343781 215.539993286)
(-0.0243625454605 -5.00700044632 215.540008545)
(1.39108538628 -4.80259084702 215.540008545)
(3.70547199249 -3.37878131866 215.540008545)
(2.30529665947 -4.44480085373 215.540008545)
(4.42727994919 -2.32361578941 215.539993286)
(-3.74255514145 3.31561183929 215.540008545)
(-2.78920173645 4.16737794876 215.540008545)
(-1.77302598953 4.67508077621 215.540008545)
(-4.59989786148 1.95983183384 215.540008545)
(-4.22594928741 2.67233085632 215.540008545)
(-4.85470914841 1.19657838345 215.540008545)
(-4.98378658295 0.402334451675 215.540008545)
(-4.98378658295 -0.402332395315 215.540008545)
(27.4548721313 39.5216560364 -77.0615768433)
(26.9083328247 41.6430130005 -75.527671814)
(27.1960983276 37.4300918579 -77.8832550049)
(26.6249980927 35.8956451416 -78.1558914185)
(25.8620262146 42.7887077332 -74.0752029419)
(25.5694103241 42.5004997253 -76.7674713135)
(24.7088718414 43.4558258057 -75.5668258667)
(26.1767501831 40.8080787659 -78.1399002075)
(26.1187095642 38.8243484497 -79.0815124512)
(25.5539493561 36.9046592712 -79.5522613525)
(20.4993228912 -43.5374450684 -77.0615768433)
(22.6097717285 -44.1247940063 -75.5276947021)
(18.8173503876 -42.2675476074 -77.8832626343)
(17.7740421295 -41.0057449341 -78.1558914185)
(24.1250896454 -43.7915306091 -74.0752105713)
(24.0218639374 -43.3939704895 -76.7675552368)
(25.2794075012 -43.1264305115 -75.5668334961)
(22.2524433136 -43.0737609863 -78.1399154663)
(20.5635223389 -42.0316429138 -79.0815048218)
(19.1833953857 -40.582698822 -79.5522613525)
(-36.8195648193 -9.53510570526 -60.7653961182)
(-36.8374595642 -9.32980728149 -64.2106933594)
(-36.1790924072 -11.6576347351 -61.1704139709)
(-35.2465324402 -14.2847604752 -54.4914016724)
(-35.0331344604 -14.7526779175 -57.0237846375)
(-33.3856620789 -18.2087154388 -52.2160568237)
(-33.368637085 -18.1993141174 -49.0267219543)
(-29.9339485168 -23.4149932861 -41.1706809998)
(-27.731300354 -26.0039234161 -36.8994903564)
(-26.793510437 -26.9588699341 -38.4071044922)
(-28.91822052 -24.6590843201 -42.343952179)
(-25.1933307648 -28.4608612061 -32.4630279541)
(-22.5968170166 -30.5676250458 -28.2400875092)
(-20.0590629578 -32.2964820862 -24.4002723694)
(-17.6163520813 -33.6828422546 -24.0546665192)
(-20.9046573639 -31.7601108551 -28.8517017365)
(-17.2248096466 -33.889919281 -20.3148708344)
(-14.0011739731 -35.3556289673 -19.0542125702)
(-14.2152261734 -35.2505874634 -16.1865615845)
(-10.6108121872 -36.5037307739 -11.3703231812)
(-6.40654802322 -37.4726333618 -5.94987249374)
(-3.69440221786 -37.8305740356 -5.69816493988)
(-6.87968492508 -37.3821716309 -9.74039840698)
(-2.88262581825 -37.9018630981 -1.49147367477)
(3.50574827194 -37.8465461731 6.55056095123)
(6.70684766769 -37.4198303223 10.6025743484)
(7.97981786728 -37.1612358093 9.04067230225)
(4.11633110046 -37.7998428345 4.12241172791)
(10.0942602158 -36.642829895 14.9644060135)
(13.1794185638 -35.6520614624 19.0398406982)
(16.0147247314 -34.4779624939 22.8972911835)
(19.0765190125 -32.8839378357 27.2329788208)
(19.9551315308 -32.3522453308 25.3380126953)
(16.9409236908 -34.0327453613 21.0053482056)
(21.1007080078 -31.6048870087 30.2376823425)
(22.9910869598 -30.2619094849 33.1558151245)
(25.8110752106 -27.8977031708 37.7782592773)
(27.8677845001 -25.8421573639 41.4346046448)
(30.1816959381 -23.1053009033 45.9264907837)
(34.1613044739 -16.668384552 52.2803573608)
(32.3634567261 -19.9681472778 47.5472984314)
(32.3269805908 -20.0259151459 50.650680542)
(34.5029144287 -15.9407329559 56.4673995972)
(35.5855026245 -13.338932991 60.0111160278)
(36.703250885 -9.86295127869 64.5980224609)
(37.5129356384 -5.96330595016 66.416557312)
(36.7303619385 -9.8440656662 61.4479026794)
(35.5532112122 -13.4586448669 56.6661720276)
(29.6527557373 -23.7781124115 41.6765556335)
(27.7901515961 -25.9426937103 38.0855369568)
(25.2214984894 -28.4330291748 33.5948829651)
(22.9026794434 -30.3421630859 29.8163356781)
(14.3206005096 -35.2160644531 17.3860378265)
(11.1470689774 -36.3449211121 13.1554555893)
(0.25890481472 -38.0107727051 2.45909309387)
(-0.159431859851 -38.016040802 -1.25436913967)
(-9.84480667114 -36.7195739746 -13.5623016357)
(-24.409526825 -29.1443271637 -34.343170166)
(-31.0190925598 -21.9786548615 -46.6219596863)
(-31.7350063324 -20.9147758484 -45.0441398621)
(-49.9851226807 1.05852127075 -74.1310195923)
(-49.646736145 2.20234012604 -75.2481307983)
(-49.5912055969 0.893404841423 -76.7676239014)
(-49.9864349365 -0.355845838785 -75.5453796387)
(-48.7696990967 3.36420869827 -76.4099960327)
(-48.7609024048 1.94534778595 -77.8195571899)
(-47.5077095032 2.84235572815 -78.7165679932)
(-47.5011711121 4.25032997131 -77.2961196899)
(-46.0134506226 4.83747053146 -77.8832626343)
(-45.8645935059 3.46251630783 -79.3367385864)
(-44.3990440369 5.11009979248 -78.1558914185)
(-44.3444900513 3.69726657867 -79.5714874268)
(-21.1332702637 -26.5723743439 70.9716262817)
(-24.021856308 -43.3939857483 77.8475265503)
(-25.3032855988 -43.1117019653 76.6147155762)
(-22.2524299622 -43.0737571716 79.2199249268)
(-20.5635528564 -42.031665802 80.1614990234)
(-25.0737514496 -28.5264968872 67.707244873)
(-24.6060295105 -28.690410614 68.3449249268)
(-24.1379699707 -28.7170848846 68.8927841187)
(-23.4928264618 -28.5893802643 69.5445632935)
(-22.1601676941 -27.8019771576 70.5617141724)
(8.72395992279 37.0117530823 -62.1074905396)
(11.8214921951 36.1204528809 -62.9729957581)
(9.33449554443 36.8461418152 -59.7113227844)
(5.81852960587 37.5644798279 -55.2044448853)
(2.8955411911 37.9022598267 -51.5075187683)
(-0.156677380204 38.0157203674 -50.8568305969)
(3.62486815453 37.8577651978 -55.6172828674)
(-3.52283191681 37.8528060913 -46.624130249)
(-0.487157762051 38.0070991516 -47.2532730103)
(-4.41813516617 37.755241394 -42.3023834229)
(-7.84566307068 37.1956977844 -41.1216621399)
(-14.6045789719 35.0991630554 -32.2276344299)
(-11.3414859772 36.2766532898 -36.583442688)
(-12.0511512756 36.048500061 -32.4630470276)
(-15.1739253998 34.8532333374 -28.2400932312)
(-17.5471229553 33.7230873108 -28.1545200348)
(-17.8456954956 33.5603065491 -24.5254650116)
(-20.3456916809 32.1079139709 -24.0849189758)
(-25.6589584351 28.0509681702 -15.679605484)
(-22.9987831116 30.2604160309 -20.0217227936)
(-23.420337677 29.936006546 -16.1864910126)
(-26.3077278137 27.4411182404 -11.3703622818)
(-28.02085495 25.67760849 -11.4808282852)
(-31.9580554962 20.5889186859 -3.37972688675)
(-30.0615291595 23.2643299103 -7.50008869171)
(-31.3826732635 21.4473381042 -1.4914444685)
(-33.0477104187 18.7812366486 2.4589984417)
(-33.6624107361 17.6661930084 0.869478642941)
(-34.5289535522 15.8871927261 6.55058145523)
(-35.4649620056 13.6893129349 6.36399269104)
(-37.3896369934 6.87384939194 15.2648220062)
(-36.602848053 10.2365064621 10.9284267426)
(-36.78074646 9.57956218719 14.9643650055)
(-37.4653053284 6.41229009628 19.0398769379)
(-37.8387565613 3.66033482552 19.3333377838)
(-37.8518638611 3.45006155968 22.795627594)
(-38.0142974854 0.317085266113 23.5532608032)
(-37.9003639221 -2.9798476696 27.6917610168)
(-37.5426330566 -5.96090173721 31.4649276733)
(-36.8314743042 -9.42011928558 35.9015846252)
(-35.9812355042 -12.2688674927 39.638507843)
(-34.6759681702 -15.5841093063 44.1134567261)
(-35.1006317139 -14.5854473114 45.9264640808)
(-33.5064315796 -17.9830570221 50.6507148743)
(-33.0704689026 -18.7381420135 48.549987793)
(-29.4319934845 -24.0608406067 56.6664581299)
(-31.5154590607 -21.2510280609 52.2813949585)
(-30.9029006958 -22.1260643005 56.8132324219)
(-29.3446044922 -24.1484851837 60.0111198425)
(-26.8903255463 -26.8874588013 61.4480361938)
(-26.8931980133 -26.8544597626 64.5980072021)
(-8.65436172485 37.0179824829 -36.8995475769)
(-20.7371501923 31.8620662689 -20.3148345947)