/*--------------------------------*- C++ -*----------------------------------*\
  =========                 |
  \\      /  F ield         | OpenFOAM: The Open Source CFD Toolbox
   \\    /   O peration     | Website:  https://openfoam.org
    \\  /    A nd           | Version:  6
     \\/     M anipulation  |
\*---------------------------------------------------------------------------*/
FoamFile
{
    version     2.0;
    format      ascii;
    class       extendedFeatureEdgeMesh;
    location    "constant/extendedFeatureEdgeMesh";
    object      airfoil.extendedFeatureEdgeMesh;
}
// * * * * * * * * * * * * * * * * * * * * * * * * * * * * * * * * * * * * * //

// points

116
(
(0.00025 -0.00186 -0.2)
(0.00025 -0.00186 0.2)
(0.09921 0.04526 -0.2)
(0.09921 0.04526 0.2)
(0.11794 0.09802 -0.2)
(0.11794 0.09802 0.2)
(0.149 0.05144 -0.2)
(0.149 0.05144 0.2)
(0.98745 0.00132 -0.2)
(0.98745 0.00132 0.2)
(0.98718 0.00037 -0.2)
(0.98718 0.00037 0.2)
(0.00127 0.00438 -0.2)
(0.00127 0.00438 0.2)
(0.00457 -0.00741 -0.2)
(0.00457 -0.00741 0.2)
(0.01408 -0.01285 -0.2)
(0.01408 -0.01285 0.2)
(0.02839 -0.01759 -0.2)
(0.02839 -0.01759 0.2)
(0.04763 -0.02141 -0.2)
(0.04763 -0.02141 0.2)
(0.07182 -0.02438 -0.2)
(0.07182 -0.02438 0.2)
(0.10073 -0.0266 -0.2)
(0.10073 -0.0266 0.2)
(0.13407 -0.02809 -0.2)
(0.13407 -0.02809 0.2)
(0.1715 -0.02888 -0.2)
(0.1715 -0.02888 0.2)
(0.00697 0.01172 -0.2)
(0.00697 0.01172 0.2)
(0.01702 0.01932 -0.2)
(0.01702 0.01932 0.2)
(0.0313 0.02677 -0.2)
(0.0313 0.02677 0.2)
(0.04978 0.03372 -0.2)
(0.04978 0.03372 0.2)
(0.07244 0.03993 -0.2)
(0.07244 0.03993 0.2)
(0.16442 0.05292 -0.2)
(0.16442 0.05292 0.2)
(0.2024 0.05518 -0.2)
(0.2024 0.05518 0.2)
(0.24358 0.05639 -0.2)
(0.24358 0.05639 0.2)
(0.2876 0.05658 -0.2)
(0.2876 0.05658 0.2)
(0.33405 0.05581 -0.2)
(0.33405 0.05581 0.2)
(0.3825 0.05415 -0.2)
(0.3825 0.05415 0.2)
(0.43249 0.05171 -0.2)
(0.43249 0.05171 0.2)
(0.21268 -0.029 -0.2)
(0.21268 -0.029 0.2)
(0.25719 -0.02852 -0.2)
(0.25719 -0.02852 0.2)
(0.30456 -0.02752 -0.2)
(0.30456 -0.02752 0.2)
(0.35426 -0.02608 -0.2)
(0.35426 -0.02608 0.2)
(0.40572 -0.02428 -0.2)
(0.40572 -0.02428 0.2)
(0.45837 -0.02217 -0.2)
(0.45837 -0.02217 0.2)
(0.4835 0.04859 -0.2)
(0.4835 0.04859 0.2)
(0.51161 -0.0198 -0.2)
(0.51161 -0.0198 0.2)
(0.53499 0.04494 -0.2)
(0.53499 0.04494 0.2)
(0.56484 -0.01723 -0.2)
(0.56484 -0.01723 0.2)
(0.58641 0.04086 -0.2)
(0.58641 0.04086 0.2)
(0.61748 -0.0145 -0.2)
(0.61748 -0.0145 0.2)
(0.63717 0.03649 -0.2)
(0.63717 0.03649 0.2)
(0.66898 -0.01167 -0.2)
(0.66898 -0.01167 0.2)
(0.68673 0.03197 -0.2)
(0.68673 0.03197 0.2)
(0.71883 -0.00887 -0.2)
(0.71883 -0.00887 0.2)
(0.73449 0.02744 -0.2)
(0.73449 0.02744 0.2)
(0.76644 -0.00628 -0.2)
(0.76644 -0.00628 0.2)
(0.77985 0.02304 -0.2)
(0.77985 0.02304 0.2)
(0.81118 -0.00403 -0.2)
(0.81118 -0.00403 0.2)
(0.82224 0.01884 -0.2)
(0.82224 0.01884 0.2)
(0.85241 -0.0022 -0.2)
(0.85241 -0.0022 0.2)
(0.86112 0.01494 0.2)
(0.86112 0.01494 -0.2)
(0.896 0.01139 -0.2)
(0.896 0.01139 0.2)
(0.88957 -0.00082 -0.2)
(0.88957 -0.00082 0.2)
(0.92639 0.00824 -0.2)
(0.92639 0.00824 0.2)
(0.9221 8e-05 -0.2)
(0.9221 8e-05 0.2)
(0.95193 0.00547 -0.2)
(0.95193 0.00547 0.2)
(0.94952 0.00052 -0.2)
(0.94952 0.00052 0.2)
(0.97235 0.0031 -0.2)
(0.97235 0.0031 0.2)
(0.97134 0.00057 -0.2)
(0.97134 0.00057 0.2)
)

// edges

122
(
(2 3)
(6 7)
(1 0)
(4 5)
(8 9)
(11 10)
(0 12)
(13 1)
(14 0)
(1 15)
(16 14)
(15 17)
(18 16)
(17 19)
(20 18)
(19 21)
(22 20)
(21 23)
(24 22)
(23 25)
(26 24)
(25 27)
(28 26)
(27 29)
(12 30)
(31 13)
(30 32)
(33 31)
(32 34)
(35 33)
(34 36)
(37 35)
(36 38)
(39 37)
(38 2)
(3 39)
(2 4)
(5 3)
(4 6)
(7 5)
(6 40)
(41 7)
(40 42)
(43 41)
(42 44)
(45 43)
(44 46)
(47 45)
(46 48)
(49 47)
(48 50)
(51 49)
(50 52)
(53 51)
(54 28)
(29 55)
(56 54)
(55 57)
(58 56)
(57 59)
(60 58)
(59 61)
(62 60)
(61 63)
(64 62)
(63 65)
(52 66)
(67 53)
(68 64)
(65 69)
(66 70)
(71 67)
(72 68)
(69 73)
(70 74)
(75 71)
(76 72)
(73 77)
(74 78)
(79 75)
(80 76)
(77 81)
(78 82)
(83 79)
(84 80)
(81 85)
(82 86)
(87 83)
(88 84)
(85 89)
(86 90)
(91 87)
(92 88)
(89 93)
(90 94)
(95 91)
(96 92)
(93 97)
(98 95)
(94 99)
(99 100)
(101 98)
(102 96)
(97 103)
(100 104)
(105 101)
(106 102)
(103 107)
(104 108)
(109 105)
(110 106)
(107 111)
(108 112)
(113 109)
(114 110)
(111 115)
(112 8)
(9 113)
(10 114)
(115 11)
(8 10)
(11 9)
)

// concaveStart mixedStart nonFeatureStart
0 0 12
// internalStart flatStart openStart multipleStart
2 6 6 122
// normals

116
(
(0.9869020654 -0.1613205299 0)
(0.9869020654 -0.1613205299 0)
(0.7891224799 0.6142358763 0)
(0.7891224799 0.6142358763 -0)
(0.496532069 0.868018378 0)
(0.496532069 0.868018378 -0)
(0.3144361107 0.9492786379 0)
(0.3144361107 0.9492786379 -0)
(0.1947434059 0.9808542225 0)
(0.1947434059 0.9808542225 -0)
(0.1218629354 0.9925469384 0)
(0.1218629354 0.9925469384 -0)
(0.07656463014 0.9970646205 0)
(0.07656463014 0.9970646205 -0)
(0.044646498 0.999002848 0)
(0.044646498 0.999002848 -0)
(0.02110136521 0.9997773414 0)
(0.02110136521 0.9997773414 -0)
(0.7898155186 -0.6133444763 0)
(0.7898155186 -0.6133444763 0)
(0.6031698541 -0.7976127676 0)
(0.6031698541 -0.7976127676 0)
(0.4625447883 -0.8865959163 0)
(0.4625447883 -0.8865959163 0)
(0.3520113778 -0.9359957211 0)
(0.3520113778 -0.9359957211 0)
(0.2643056485 -0.9644389686 0)
(0.2643056485 -0.9644389686 0)
(0.1952706129 -0.9807494011 0)
(0.1952706129 -0.9807494011 0)
(0.9423787067 -0.3345480132 0)
(0.9423787067 -0.3345480132 0)
(-0.8319953314 -0.5547826319 0)
(-0.8319953314 -0.5547826319 0)
(0.09554019763 -0.9954255726 0)
(0.09554019763 -0.9954255726 0)
(0.05939993257 -0.9982342651 0)
(0.05939993257 -0.9982342651 0)
(0.02937051962 -0.9995685932 0)
(0.02937051962 -0.9995685932 0)
(0.004316179696 -0.9999906853 0)
(0.004316179696 -0.9999906853 0)
(-0.01657468731 -0.9998626304 0)
(-0.01657468731 -0.9998626304 0)
(-0.03424203355 -0.9994135696 0)
(-0.03424203355 -0.9994135696 0)
(-0.04875172362 -0.9988109278 0)
(-0.04875172362 -0.9988109278 0)
(0.002914023567 0.9999957542 0)
(0.002914023567 0.9999957542 -0)
(-0.01078346644 0.9999418567 0)
(-0.01078346644 0.9999418567 0)
(-0.02110570508 0.9997772498 0)
(-0.02110570508 0.9997772498 0)
(-0.02896168918 0.9995805223 0)
(-0.02896168918 0.9995805223 0)
(-0.03495724554 0.9993888087 0)
(-0.03495724554 0.9993888087 0)
(-0.04004382944 0.9991979242 0)
(-0.04004382944 0.9991979242 0)
(-0.06105038656 -0.9981346855 0)
(-0.06105038656 -0.9981346855 0)
(-0.04447136107 0.9990106596 0)
(-0.04447136107 0.9990106596 0)
(-0.07071011286 -0.9974969072 0)
(-0.07071011286 -0.9974969072 0)
(-0.04822486973 0.9988365041 0)
(-0.04822486973 0.9988365041 0)
(-0.07909795298 -0.9968668486 0)
(-0.07909795298 -0.9968668486 0)
(-0.05179209795 0.9986578887 0)
(-0.05179209795 0.9986578887 0)
(-0.08577412999 -0.9963146083 0)
(-0.08577412999 -0.9963146083 0)
(-0.05486867631 0.9984935795 0)
(-0.05486867631 0.9984935795 0)
(-0.09082562524 -0.9958668113 0)
(-0.09082562524 -0.9958668113 0)
(-0.05608011158 0.9984262722 0)
(-0.05608011158 0.9984262722 0)
(-0.09442545364 -0.9955319351 0)
(-0.09442545364 -0.9955319351 0)
(-0.05432001821 0.9985235779 0)
(-0.05432001821 0.9985235779 0)
(-0.09654859778 -0.9953282716 0)
(-0.09654859778 -0.9953282716 0)
(-0.05022709213 0.9987378231 0)
(-0.05022709213 0.9987378231 0)
(-0.09859719713 -0.9951274254 0)
(-0.09859719713 -0.9951274254 0)
(-0.04434150062 0.999016432 0)
(-0.04434150062 0.999016432 0)
(-0.09980777462 -0.9950067377 0)
(-0.09980777462 -0.9950067377 0)
(-0.1012544437 -0.9948605619 0)
(-0.1012544437 -0.9948605619 0)
(-0.03711112433 0.999311145 0)
(-0.03711112433 0.999311145 0)
(-0.103100151 -0.9946709802 0)
(-0.103100151 -0.9946709802 0)
(-0.02765618645 0.9996174945 0)
(-0.02765618645 0.9996174945 0)
(-0.1078250036 -0.9941698892 0)
(-0.1078250036 -0.9941698892 0)
(-0.01604461568 0.9998712769 0)
(-0.01604461568 0.9998712769 0)
(-0.1152887797 -0.9933320176 0)
(-0.1152887797 -0.9933320176 0)
(-0.002291469694 0.9999973746 0)
(-0.002291469694 0.9999973746 0)
(-0.1170702041 -0.9931236415 0)
(-0.1170702041 -0.9931236415 0)
(0.01262525629 0.9999202983 0)
(0.01262525629 0.9999202983 -0)
(-0.9619051051 0.2733835562 0)
(-0.9619051051 0.2733835562 0)
)

// normal volume types

116
(
0
0
0
0
0
0
0
0
0
0
0
0
0
0
0
0
0
0
0
0
0
0
0
0
0
0
0
0
0
0
0
0
0
0
0
0
0
0
0
0
0
0
0
0
0
0
0
0
0
0
0
0
0
0
0
0
0
0
0
0
0
0
0
0
0
0
0
0
0
0
0
0
0
0
0
0
0
0
0
0
0
0
0
0
0
0
0
0
0
0
0
0
0
0
0
0
0
0
0
0
0
0
0
0
0
0
0
0
0
0
0
0
0
0
0
0
)

// normalDirections

122
(
2(1 -1)
2(1 -1)
2(1 -1)
2(1 -1)
2(1 -1)
2(1 -1)
1(1)
1(1)
1(1)
1(1)
1(1)
1(1)
1(1)
1(1)
1(1)
1(1)
1(1)
1(1)
1(1)
1(1)
1(1)
1(1)
1(1)
1(1)
1(1)
1(1)
1(1)
1(1)
1(1)
1(1)
1(1)
1(1)
1(1)
1(1)
1(1)
1(1)
1(1)
1(1)
1(1)
1(1)
1(1)
1(1)
1(1)
1(1)
1(1)
1(1)
1(1)
1(1)
1(1)
1(1)
1(1)
1(1)
1(1)
1(1)
1(1)
1(1)
1(1)
1(1)
1(1)
1(1)
1(1)
1(1)
1(1)
1(1)
1(1)
1(1)
1(1)
1(1)
1(1)
1(1)
1(1)
1(1)
1(1)
1(1)
1(1)
1(1)
1(1)
1(1)
1(1)
1(1)
1(1)
1(1)
1(1)
1(1)
1(1)
1(1)
1(1)
1(1)
1(1)
1(1)
1(1)
1(1)
1(1)
1(1)
1(1)
1(1)
1(1)
1(1)
1(1)
1(1)
1(1)
1(1)
1(1)
1(1)
1(1)
1(1)
1(1)
1(1)
1(1)
1(1)
1(1)
1(1)
1(1)
1(1)
1(1)
1(1)
1(1)
1(1)
1(1)
1(1)
1(1)
1(1)
)

// edgeNormals

122
(
2(28 31)
2(32 35)
2(1 2)
2(30 33)
2(110 115)
2(113 114)
1(0)
1(1)
1(2)
1(3)
1(4)
1(5)
1(6)
1(7)
1(8)
1(9)
1(10)
1(11)
1(12)
1(13)
1(14)
1(15)
1(16)
1(17)
1(18)
1(19)
1(20)
1(21)
1(22)
1(23)
1(24)
1(25)
1(26)
1(27)
1(28)
1(29)
1(30)
1(31)
1(32)
1(33)
1(34)
1(35)
1(36)
1(37)
1(38)
1(39)
1(40)
1(41)
1(42)
1(43)
1(44)
1(45)
1(46)
1(47)
1(48)
1(49)
1(50)
1(51)
1(52)
1(53)
1(54)
1(55)
1(56)
1(57)
1(58)
1(59)
1(60)
1(61)
1(62)
1(63)
1(64)
1(65)
1(66)
1(67)
1(68)
1(69)
1(70)
1(71)
1(72)
1(73)
1(74)
1(75)
1(76)
1(77)
1(78)
1(79)
1(80)
1(81)
1(82)
1(83)
1(84)
1(85)
1(86)
1(87)
1(88)
1(89)
1(90)
1(91)
1(92)
1(93)
1(94)
1(95)
1(96)
1(97)
1(98)
1(99)
1(100)
1(101)
1(102)
1(103)
1(104)
1(105)
1(106)
1(107)
1(108)
1(109)
1(110)
1(111)
1(112)
1(113)
1(114)
1(115)
)

// featurePointNormals

12
(
2(1 2)
2(1 2)
2(28 31)
2(28 31)
2(30 33)
2(30 33)
2(32 35)
2(32 35)
2(110 115)
2(110 115)
2(113 114)
2(113 114)
)

// featurePointEdges

12
(
3(2 6 8)
3(2 7 9)
3(0 34 36)
3(0 35 37)
3(3 36 38)
3(3 37 39)
3(1 38 40)
3(1 39 41)
3(4 116 120)
3(4 117 121)
3(5 118 120)
3(5 119 121)
)

// regionEdges

116
(
6
7
8
9
10
11
12
13
14
15
16
17
18
19
20
21
22
23
24
25
26
27
28
29
30
31
32
33
34
35
36
37
38
39
40
41
42
43
44
45
46
47
48
49
50
51
52
53
54
55
56
57
58
59
60
61
62
63
64
65
66
67
68
69
70
71
72
73
74
75
76
77
78
79
80
81
82
83
84
85
86
87
88
89
90
91
92
93
94
95
96
97
98
99
100
101
102
103
104
105
106
107
108
109
110
111
112
113
114
115
116
117
118
119
120
121
)



// ************************************************************************* //
