/*--------------------------------*- C++ -*----------------------------------*\
| =========                 |                                                 |
| \\      /  F ield         | OpenFOAM: The Open Source CFD Toolbox           |
|  \\    /   O peration     | Version:  2212                                  |
|   \\  /    A nd           | Website:  www.openfoam.com                      |
|    \\/     M anipulation  |                                                 |
\*---------------------------------------------------------------------------*/
FoamFile
{
    version     2.0;
    format      ascii;
    arch        "LSB;label=64;scalar=64";
    class       featureEdgeMesh;
    location    "constant/triSurface";
    object      simplified.eMesh;
}
// * * * * * * * * * * * * * * * * * * * * * * * * * * * * * * * * * * * * * //


// points:

126
(
(25.4228 -0.219851 52.4988)
(25.4228 10.0001 52.4988)
(2.35111 10.0002 -36.5564)
(2.35111 -0.219822 -36.5564)
(23.7341 10.0002 -42.0924)
(23.7341 -0.21982 -42.0924)
(46.8883 10.0002 47.0423)
(46.8883 -0.219849 47.0423)
(5.89488 -0.219859 80.4034)
(5.89488 10.0001 80.4034)
(0.429089 10.0001 58.9439)
(0.429089 -0.219853 58.9439)
(46.8883 10.0002 47.0423)
(46.8883 -0.219849 47.0423)
(52.3541 10.0001 68.5018)
(52.3541 -0.219856 68.5018)
(-23.2389 -0.219861 87.9396)
(-23.2389 52.1249 87.9396)
(-28.7659 52.1249 66.5796)
(-28.7659 -0.219855 66.5796)
(0.42909 52.1249 58.9439)
(0.42909 -0.251752 58.9439)
(5.88471 52.1249 80.4034)
(5.88471 -0.219859 80.4034)
(18.6411 -0.219813 -63.0274)
(18.6411 34.1743 -63.0274)
(5.79111 34.1339 -113.057)
(5.95699 -0.195426 -113.098)
(23.2711 34.1114 -117.347)
(23.2711 -0.271096 -117.347)
(36.0311 34.1347 -67.6574)
(36.0311 -0.219812 -67.6574)
(-11.6589 -0.219794 -124.687)
(-11.6589 33.9134 -124.687)
(-24.4189 34.0105 -174.447)
(-24.4189 -0.255778 -174.447)
(-7.09889 33.9019 -178.887)
(-7.09889 -0.255777 -178.887)
(5.74111 34.0441 -129.037)
(5.74111 -0.219793 -129.037)
(-83.1089 -0.219832 21.8026)
(-83.1089 34.4307 21.8026)
(-79.4989 34.4051 -15.6074)
(-79.4989 -0.24132 -15.6074)
(-68.5889 34.4158 -14.5274)
(-68.5889 -0.24132 -14.5274)
(-72.0489 34.4398 22.8131)
(-72.0489 -0.219832 22.8131)
(-81.8989 -0.219838 40.8226)
(-81.8989 28.7078 40.8226)
(-80.0588 28.6973 22.0813)
(-80.0588 -0.219832 22.0813)
(-69.0989 28.6998 23.0826)
(-69.0989 -0.219832 23.0826)
(-70.899 28.7103 41.8332)
(-70.899 -0.219839 41.8332)
(-80.5089 -0.17965 78.7126)
(-80.5089 23.0015 78.7126)
(-76.9286 22.9785 41.2792)
(-76.9286 -0.219838 41.2792)
(-65.8989 23.0025 42.2926)
(-65.8989 -0.219838 42.2926)
(-69.5389 23.0289 79.7626)
(-69.5389 -0.17965 79.7626)
(-138.879 -0.117523 76.4207)
(-138.879 22.8386 76.4207)
(-143.781 22.8182 55.9983)
(-143.781 -0.117515 55.9983)
(-131.659 22.8264 53.3426)
(-131.659 -0.117515 53.3426)
(-126.939 22.8467 73.8426)
(-126.939 -0.117521 73.8426)
(-143.758 -0.110832 56.0886)
(-143.758 28.5455 56.0886)
(-148.499 28.5396 37.9014)
(-148.499 -0.110826 37.9013)
(-142.639 28.5411 36.5826)
(-142.639 -0.110826 36.5826)
(-138.439 28.5467 54.8815)
(-138.439 -0.110832 54.8815)
(-148.499 -0.141134 37.9013)
(-148.499 34.261 37.9029)
(-155.782 34.2558 9.96383)
(-155.782 -0.128125 9.96382)
(-151.971 34.262 8.9701)
(-151.971 -0.128125 8.97009)
(-145.5 34.2653 37.2273)
(-145.5 -0.108333 37.2273)
(-102.299 -0.219812 -42.4874)
(-102.299 33.8848 -42.4874)
(-96.1089 33.8743 -93.5774)
(-96.1089 -0.230795 -93.5774)
(-78.2189 34.1941 -91.5774)
(-78.2189 -0.230796 -91.5774)
(-84.4389 33.8856 -40.4874)
(-84.4389 -0.219812 -40.4874)
(-113.489 -0.219824 -114.487)
(-113.489 33.8565 -114.487)
(-107.269 33.874 -165.637)
(-107.269 -0.179606 -165.637)
(-89.4989 33.8992 -163.517)
(-89.4989 -0.179607 -163.517)
(-95.7189 33.8735 -112.367)
(-95.7189 -0.219824 -112.367)
(-169.686 -0.21977 -172.062)
(-169.686 17.6888 -172.062)
(-168.231 18.2246 -186.651)
(-168.231 -0.219766 -186.651)
(-113.848 18.3063 -181.203)
(-113.848 -0.219768 -181.203)
(-115.295 17.9651 -166.574)
(-115.295 -0.219772 -166.574)
(-173.211 -0.105168 -56.8885)
(-173.211 36.0664 -56.8885)
(-181.889 36.0413 -90.1761)
(-181.889 -0.168858 -90.1761)
(-169.164 36.0258 -89.2474)
(-169.164 -0.168858 -89.2474)
(-197.979 33.3083 -161.577)
(-197.979 -0.056897 -161.577)
(-180.579 33.3078 -159.417)
(-180.579 -0.056897 -159.417)
(-186.831 33.3338 -109.135)
(-186.831 -0.105213 -109.135)
(-198.794 33.2957 -155.023)
(-198.794 -0.056899 -155.023)
)


// edges:

188
(
(0 1)
(1 2)
(2 3)
(3 0)
(2 4)
(4 5)
(5 3)
(4 6)
(6 7)
(7 5)
(6 1)
(0 7)
(8 9)
(9 10)
(10 11)
(11 8)
(10 12)
(12 13)
(13 11)
(12 14)
(14 15)
(15 13)
(14 9)
(8 15)
(16 17)
(17 18)
(18 19)
(19 16)
(18 20)
(20 21)
(21 19)
(20 22)
(22 23)
(23 21)
(22 17)
(16 23)
(24 25)
(25 26)
(26 27)
(27 24)
(26 28)
(28 29)
(29 27)
(28 30)
(30 31)
(31 29)
(30 25)
(24 31)
(32 33)
(33 34)
(34 35)
(35 32)
(34 36)
(36 37)
(37 35)
(36 38)
(38 39)
(39 37)
(38 33)
(32 39)
(40 41)
(41 42)
(42 43)
(43 40)
(42 44)
(44 45)
(45 43)
(44 46)
(46 47)
(47 45)
(46 41)
(40 47)
(48 49)
(49 50)
(50 51)
(51 48)
(50 52)
(52 53)
(53 51)
(52 54)
(54 55)
(55 53)
(54 49)
(48 55)
(56 57)
(57 58)
(58 59)
(59 56)
(58 60)
(60 61)
(61 59)
(60 62)
(62 63)
(63 61)
(62 57)
(56 63)
(64 65)
(65 66)
(66 67)
(67 64)
(66 68)
(68 69)
(69 67)
(68 70)
(70 71)
(71 69)
(70 65)
(64 71)
(72 73)
(73 74)
(74 75)
(75 72)
(74 76)
(76 77)
(77 75)
(76 78)
(78 79)
(79 77)
(78 73)
(72 79)
(80 81)
(81 82)
(82 83)
(83 80)
(82 84)
(84 85)
(85 83)
(84 86)
(86 87)
(87 85)
(86 81)
(80 87)
(88 89)
(89 90)
(90 91)
(91 88)
(90 92)
(92 93)
(93 91)
(92 94)
(94 95)
(95 93)
(94 89)
(88 95)
(96 97)
(97 98)
(98 99)
(99 96)
(98 100)
(100 101)
(101 99)
(100 102)
(102 103)
(103 101)
(102 97)
(96 103)
(104 105)
(105 106)
(106 107)
(107 104)
(106 108)
(108 109)
(109 107)
(108 110)
(110 111)
(111 109)
(110 105)
(104 111)
(112 113)
(113 114)
(114 115)
(115 112)
(114 116)
(116 117)
(117 115)
(116 113)
(112 117)
(124 118)
(118 119)
(119 125)
(118 120)
(120 121)
(121 119)
(120 122)
(122 123)
(123 121)
(122 124)
(125 123)
)

// * * * * * * * * * * * * * * * * * * * * * * * * * * * * * * * * * * * * * //


// ************************************************************************* //
