/*--------------------------------*- C++ -*----------------------------------*\
  =========                 |
  \\      /  F ield         | OpenFOAM: The Open Source CFD Toolbox
   \\    /   O peration     | Website:  https://openfoam.org
    \\  /    A nd           | Version:  6
     \\/     M anipulation  |
\*---------------------------------------------------------------------------*/
FoamFile
{
    version     2.0;
    format      ascii;
    class       featureEdgeMesh;
    location    "constant/triSurface";
    object      airfoil.eMesh;
}
// * * * * * * * * * * * * * * * * * * * * * * * * * * * * * * * * * * * * * //


// points:

114
(
(0.000411 -0.001831 -0.2)
(0.000411 -0.001831 0.2)
(0.046652 0.03793 -0.2)
(0.046652 0.03793 0.2)
(0.055435 0.090693 -0.2)
(0.055435 0.090693 0.2)
(0.094888 0.053735 -0.2)
(0.094888 0.053734 0.2)
(0.983577 0.087377 -0.2)
(0.983577 0.087377 0.2)
(0.983391 0.086407 -0.2)
(0.983391 0.086407 0.2)
(0.000883 0.004474 -0.2)
(0.000883 0.004474 0.2)
(0.005922 0.012283 -0.2)
(0.005922 0.012283 0.2)
(0.015271 0.02073 -0.2)
(0.015271 0.02073 0.2)
(0.028848 0.029396 -0.2)
(0.028848 0.029396 0.2)
(0.005198 -0.006983 -0.2)
(0.005198 -0.006984 0.2)
(0.015146 -0.011574 -0.2)
(0.015146 -0.011574 0.2)
(0.029815 -0.015049 -0.2)
(0.029815 -0.015049 0.2)
(0.049315 -0.017177 -0.2)
(0.049315 -0.017177 0.2)
(0.073672 -0.018028 -0.2)
(0.073672 -0.018028 0.2)
(0.102665 -0.01772 -0.2)
(0.102665 -0.01772 0.2)
(0.136008 -0.016298 -0.2)
(0.136008 -0.016298 0.2)
(0.173364 -0.013823 -0.2)
(0.173364 -0.013823 0.2)
(0.214398 -0.010353 -0.2)
(0.214398 -0.010353 0.2)
(0.258697 -0.005996 -0.2)
(0.258697 -0.005996 0.2)
(0.3058 -0.000871 -0.2)
(0.3058 -0.000871 0.2)
(0.125112 0.060745 -0.2)
(0.125112 0.060745 0.2)
(0.159182 0.067049 -0.2)
(0.159182 0.067049 0.2)
(0.196821 0.07261 -0.2)
(0.196821 0.07261 0.2)
(0.237738 0.077405 -0.2)
(0.237738 0.077405 0.2)
(0.281574 0.081431 -0.2)
(0.281574 0.081431 0.2)
(0.327915 0.084712 -0.2)
(0.327915 0.084712 0.2)
(0.355185 0.004895 -0.2)
(0.355185 0.004895 0.2)
(0.376325 0.087281 -0.2)
(0.376325 0.087281 0.2)
(0.406292 0.011173 -0.2)
(0.406292 0.011173 0.2)
(0.426337 0.089207 -0.2)
(0.426337 0.089207 0.2)
(0.458558 0.017864 -0.2)
(0.458558 0.017864 0.2)
(0.477425 0.090545 -0.2)
(0.477425 0.090545 0.2)
(0.511389 0.024865 -0.2)
(0.511389 0.024865 0.2)
(0.529037 0.091396 -0.2)
(0.529037 0.091396 0.2)
(0.564192 0.032065 -0.2)
(0.564192 0.032065 0.2)
(0.616394 0.039372 -0.2)
(0.616394 0.039372 0.2)
(0.580617 0.091814 -0.2)
(0.580617 0.091814 0.2)
(0.631565 0.091884 -0.2)
(0.631565 0.091884 0.2)
(0.667451 0.04668 -0.2)
(0.667451 0.04668 0.2)
(0.68133 0.091701 -0.2)
(0.68133 0.091701 0.2)
(0.729303 0.091351 -0.2)
(0.729303 0.091351 0.2)
(0.716868 0.053814 -0.2)
(0.716868 0.053814 0.2)
(0.774874 0.090921 -0.2)
(0.774874 0.090921 0.2)
(0.764071 0.060544 -0.2)
(0.764071 0.060544 0.2)
(0.817469 0.090431 -0.2)
(0.817469 0.090431 0.2)
(0.808444 0.066684 -0.2)
(0.808444 0.066684 0.2)
(0.856541 0.089935 0.2)
(0.856541 0.089935 -0.2)
(0.849358 0.072101 -0.2)
(0.849358 0.072101 0.2)
(0.891598 0.089438 -0.2)
(0.891598 0.089438 0.2)
(0.886256 0.076714 -0.2)
(0.886256 0.076714 0.2)
(0.922147 0.088949 -0.2)
(0.922147 0.088949 0.2)
(0.918584 0.080446 -0.2)
(0.918584 0.080446 0.2)
(0.947831 0.088415 -0.2)
(0.947831 0.088415 0.2)
(0.945862 0.083274 -0.2)
(0.945862 0.083274 0.2)
(0.96838 0.087834 -0.2)
(0.96838 0.087834 0.2)
(0.967594 0.085226 -0.2)
(0.967594 0.085226 0.2)
)


// edges:

120
(
(2 3)
(6 7)
(1 0)
(4 5)
(8 9)
(11 10)
(0 12)
(13 1)
(12 14)
(15 13)
(14 16)
(17 15)
(16 18)
(19 17)
(18 2)
(3 19)
(2 4)
(5 3)
(4 6)
(7 5)
(20 0)
(1 21)
(22 20)
(21 23)
(24 22)
(23 25)
(26 24)
(25 27)
(28 26)
(27 29)
(30 28)
(29 31)
(32 30)
(31 33)
(34 32)
(33 35)
(36 34)
(35 37)
(38 36)
(37 39)
(40 38)
(39 41)
(6 42)
(43 7)
(42 44)
(45 43)
(44 46)
(47 45)
(46 48)
(49 47)
(48 50)
(51 49)
(50 52)
(53 51)
(54 40)
(41 55)
(52 56)
(57 53)
(58 54)
(55 59)
(56 60)
(61 57)
(62 58)
(59 63)
(60 64)
(65 61)
(66 62)
(63 67)
(64 68)
(69 65)
(70 66)
(67 71)
(72 70)
(71 73)
(68 74)
(75 69)
(74 76)
(77 75)
(78 72)
(73 79)
(76 80)
(81 77)
(80 82)
(83 81)
(84 78)
(79 85)
(82 86)
(87 83)
(88 84)
(85 89)
(86 90)
(91 87)
(92 88)
(89 93)
(94 91)
(90 95)
(96 92)
(93 97)
(95 98)
(99 94)
(100 96)
(97 101)
(98 102)
(103 99)
(104 100)
(101 105)
(102 106)
(107 103)
(108 104)
(105 109)
(106 110)
(111 107)
(112 108)
(109 113)
(110 8)
(9 111)
(10 112)
(113 11)
(8 10)
(11 9)
)

// * * * * * * * * * * * * * * * * * * * * * * * * * * * * * * * * * * * * * //


// ************************************************************************* //
