/*--------------------------------*- C++ -*----------------------------------*\
| =========                 |                                                 |
| \\      /  F ield         | OpenFOAM: The Open Source CFD Toolbox           |
|  \\    /   O peration     | Version:  2.4.0                                 |
|   \\  /    A nd           | Web:      www.OpenFOAM.org                      |
|    \\/     M anipulation  |                                                 |
\*---------------------------------------------------------------------------*/
FoamFile
{
    version     2.0;
    format      ascii;
    class       volScalarField;
    location    "0/air";
    object      p;
}
// * * * * * * * * * * * * * * * * * * * * * * * * * * * * * * * * * * * * * //

dimensions      [1 -1 -2 0 0 0 0];

internalField   uniform 1e5; 

boundaryField
{
    inlet
    {
        type            calculated;
        value           uniform 1e5; 
    }
    outlet
    {
        type            calculated;
        value           uniform 1e5; 
    }
    top
    {
        type            slip;
    }
    ground
    {
        type            calculated;
        value           uniform 1e5; 
    }
    air_to_street
    {
        type            calculated;
        value           uniform 1e5; 
    }
    air_to_windward
    {
        type            calculated;
        value           uniform 1e5; 
    }
    air_to_leeward
    {
        type            calculated;
        value           uniform 1e5; 
    }
    side1
    {
        type            slip;
    }
    side2
    {
        type            slip;
    }
    buildings
    {
        type            calculated;
        value           uniform 1e5; 
    }
}


// ************************************************************************* //
