/*--------------------------------*- C++ -*----------------------------------*\
  =========                 |
  \\      /  F ield         | OpenFOAM: The Open Source CFD Toolbox
   \\    /   O peration     | Website:  https://openfoam.org
    \\  /    A nd           | Version:  6
     \\/     M anipulation  |
\*---------------------------------------------------------------------------*/
FoamFile
{
    version     2.0;
    format      ascii;
    class       featureEdgeMesh;
    location    "constant/triSurface";
    object      airfoil.eMesh;
}
// * * * * * * * * * * * * * * * * * * * * * * * * * * * * * * * * * * * * * //


// points:

116
(
(8.7e-05 -0.001875 -0.2)
(8.7e-05 -0.001875 0.2)
(0.102777 0.036441 -0.2)
(0.102777 0.036441 0.2)
(0.126034 0.087368 -0.2)
(0.126034 0.087368 0.2)
(0.152916 0.038258 -0.2)
(0.152916 0.038258 0.2)
(0.983808 -0.084747 -0.2)
(0.983808 -0.084747 0.2)
(0.983456 -0.08567 -0.2)
(0.983456 -0.08567 0.2)
(0.001647 0.004253 -0.2)
(0.001647 0.004253 0.2)
(0.003907 -0.00778 -0.2)
(0.003907 -0.00778 0.2)
(0.012906 -0.014028 -0.2)
(0.012906 -0.014028 0.2)
(0.026749 -0.019997 -0.2)
(0.026749 -0.019997 0.2)
(0.045583 -0.02548 -0.2)
(0.045583 -0.02548 0.2)
(0.069422 -0.030547 -0.2)
(0.069422 -0.030547 0.2)
(0.098028 -0.035278 -0.2)
(0.098028 -0.035278 0.2)
(0.131112 -0.039668 -0.2)
(0.131112 -0.039668 0.2)
(0.16833 -0.043717 -0.2)
(0.16833 -0.043717 0.2)
(0.007965 0.011068 -0.2)
(0.007965 0.011068 0.2)
(0.018639 0.017763 -0.2)
(0.018639 0.017763 0.2)
(0.033514 0.02394 -0.2)
(0.033514 0.02394 0.2)
(0.052529 0.029253 -0.2)
(0.052529 0.029253 0.2)
(0.075644 0.033465 -0.2)
(0.075644 0.033464 0.2)
(0.168407 0.038388 -0.2)
(0.168407 0.038388 0.2)
(0.206439 0.03733 -0.2)
(0.206439 0.03733 0.2)
(0.247568 0.034946 -0.2)
(0.247568 0.034946 0.2)
(0.291437 0.031299 -0.2)
(0.291437 0.031299 0.2)
(0.337643 0.026483 -0.2)
(0.337643 0.026483 0.2)
(0.385764 0.020607 -0.2)
(0.385764 0.020607 0.2)
(0.435351 0.013819 -0.2)
(0.435351 0.013819 0.2)
(0.209343 -0.047426 -0.2)
(0.209343 -0.047426 0.2)
(0.253726 -0.050827 -0.2)
(0.253726 -0.050827 0.2)
(0.301003 -0.053959 -0.2)
(0.301003 -0.053959 0.2)
(0.350639 -0.056857 -0.2)
(0.350639 -0.056857 0.2)
(0.40206 -0.059548 -0.2)
(0.40206 -0.059548 0.2)
(0.454694 -0.062035 -0.2)
(0.454694 -0.062035 0.2)
(0.485895 0.006265 -0.2)
(0.485895 0.006265 0.2)
(0.507937 -0.064314 -0.2)
(0.507937 -0.064314 0.2)
(0.536871 -0.001858 -0.2)
(0.536871 -0.001858 0.2)
(0.561189 -0.066393 -0.2)
(0.561189 -0.066393 0.2)
(0.58774 -0.010404 -0.2)
(0.58774 -0.010404 0.2)
(0.613867 -0.068262 -0.2)
(0.613867 -0.068262 0.2)
(0.637926 -0.019182 -0.2)
(0.637926 -0.019182 0.2)
(0.665417 -0.069931 -0.2)
(0.665417 -0.069931 0.2)
(0.686903 -0.028004 -0.2)
(0.686903 -0.028004 0.2)
(0.715322 -0.071486 -0.2)
(0.715322 -0.071486 0.2)
(0.734087 -0.036679 -0.2)
(0.734087 -0.036679 0.2)
(0.762976 -0.073056 -0.2)
(0.762976 -0.073056 0.2)
(0.778891 -0.045016 -0.2)
(0.778891 -0.045016 0.2)
(0.807742 -0.074714 -0.2)
(0.807742 -0.074714 0.2)
(0.820753 -0.052895 -0.2)
(0.820753 -0.052895 0.2)
(0.848975 -0.076484 -0.2)
(0.848975 -0.076484 0.2)
(0.859145 -0.060168 0.2)
(0.859145 -0.060168 -0.2)
(0.893583 -0.066745 -0.2)
(0.893583 -0.066745 0.2)
(0.886113 -0.078348 -0.2)
(0.886113 -0.078348 0.2)
(0.923583 -0.072532 -0.2)
(0.923583 -0.072532 0.2)
(0.918598 -0.080287 -0.2)
(0.918598 -0.080287 0.2)
(0.948784 -0.077517 -0.2)
(0.948784 -0.077517 0.2)
(0.945952 -0.082238 -0.2)
(0.945952 -0.082238 0.2)
(0.96892 -0.081658 -0.2)
(0.96892 -0.081658 0.2)
(0.967693 -0.08409 -0.2)
(0.967693 -0.08409 0.2)
)


// edges:

122
(
(2 3)
(6 7)
(1 0)
(4 5)
(8 9)
(11 10)
(0 12)
(13 1)
(14 0)
(1 15)
(16 14)
(15 17)
(18 16)
(17 19)
(20 18)
(19 21)
(22 20)
(21 23)
(24 22)
(23 25)
(26 24)
(25 27)
(28 26)
(27 29)
(12 30)
(31 13)
(30 32)
(33 31)
(32 34)
(35 33)
(34 36)
(37 35)
(36 38)
(39 37)
(38 2)
(3 39)
(2 4)
(5 3)
(4 6)
(7 5)
(6 40)
(41 7)
(40 42)
(43 41)
(42 44)
(45 43)
(44 46)
(47 45)
(46 48)
(49 47)
(48 50)
(51 49)
(50 52)
(53 51)
(54 28)
(29 55)
(56 54)
(55 57)
(58 56)
(57 59)
(60 58)
(59 61)
(62 60)
(61 63)
(64 62)
(63 65)
(52 66)
(67 53)
(68 64)
(65 69)
(66 70)
(71 67)
(72 68)
(69 73)
(70 74)
(75 71)
(76 72)
(73 77)
(74 78)
(79 75)
(80 76)
(77 81)
(78 82)
(83 79)
(84 80)
(81 85)
(82 86)
(87 83)
(88 84)
(85 89)
(86 90)
(91 87)
(92 88)
(89 93)
(90 94)
(95 91)
(96 92)
(93 97)
(98 95)
(94 99)
(99 100)
(101 98)
(102 96)
(97 103)
(100 104)
(105 101)
(106 102)
(103 107)
(104 108)
(109 105)
(110 106)
(107 111)
(108 112)
(113 109)
(114 110)
(111 115)
(112 8)
(9 113)
(10 114)
(115 11)
(8 10)
(11 9)
)

// * * * * * * * * * * * * * * * * * * * * * * * * * * * * * * * * * * * * * //


// ************************************************************************* //
