/*--------------------------------*- C++ -*----------------------------------*\
  =========                 |
  \\      /  F ield         | OpenFOAM: The Open Source CFD Toolbox
   \\    /   O peration     | Website:  https://openfoam.org
    \\  /    A nd           | Version:  6
     \\/     M anipulation  |
\*---------------------------------------------------------------------------*/
FoamFile
{
    version     2.0;
    format      ascii;
    class       featureEdgeMesh;
    location    "constant/triSurface";
    object      airfoil.eMesh;
}
// * * * * * * * * * * * * * * * * * * * * * * * * * * * * * * * * * * * * * //


// points:

112
(
(-0.009629 0.055198 -0.2)
(-0.009629 0.055198 0.2)
(0.04054 0.030245 -0.2)
(0.04054 0.030245 0.2)
(0.00025 -0.00186 -0.2)
(0.00025 -0.00186 0.2)
(0.98718 0.00037 -0.2)
(0.98718 0.00037 0.2)
(0.98745 0.00132 -0.2)
(0.98745 0.00132 0.2)
(0 0 -0.2)
(0 -0 0.2)
(0.04978 0.03372 -0.2)
(0.04978 0.03372 0.2)
(0.07244 0.03993 -0.2)
(0.07244 0.03993 0.2)
(0.09921 0.04526 -0.2)
(0.09921 0.04526 0.2)
(0.00457 -0.00741 -0.2)
(0.00457 -0.00741 0.2)
(0.01408 -0.01285 -0.2)
(0.01408 -0.01285 0.2)
(0.02839 -0.01759 -0.2)
(0.02839 -0.01759 0.2)
(0.04763 -0.02141 -0.2)
(0.04763 -0.02141 0.2)
(0.07182 -0.02438 -0.2)
(0.07182 -0.02438 0.2)
(0.10073 -0.0266 -0.2)
(0.10073 -0.0266 0.2)
(0.13407 -0.02809 -0.2)
(0.13407 -0.02809 0.2)
(0.1715 -0.02888 -0.2)
(0.1715 -0.02888 0.2)
(0.12993 0.04961 -0.2)
(0.12993 0.04961 0.2)
(0.16442 0.05292 -0.2)
(0.16442 0.05292 0.2)
(0.2024 0.05518 -0.2)
(0.2024 0.05518 0.2)
(0.21268 -0.029 -0.2)
(0.21268 -0.029 0.2)
(0.25719 -0.02852 -0.2)
(0.25719 -0.02852 0.2)
(0.24358 0.05639 -0.2)
(0.24358 0.05639 0.2)
(0.30456 -0.02752 -0.2)
(0.30456 -0.02752 0.2)
(0.2876 0.05658 -0.2)
(0.2876 0.05658 0.2)
(0.33405 0.05581 -0.2)
(0.33405 0.05581 0.2)
(0.35426 -0.02608 -0.2)
(0.35426 -0.02608 0.2)
(0.3825 0.05415 -0.2)
(0.3825 0.05415 0.2)
(0.40572 -0.02428 -0.2)
(0.40572 -0.02428 0.2)
(0.45837 -0.02217 -0.2)
(0.45837 -0.02217 0.2)
(0.51161 -0.0198 -0.2)
(0.51161 -0.0198 0.2)
(0.56484 -0.01723 -0.2)
(0.56484 -0.01723 0.2)
(0.61748 -0.0145 -0.2)
(0.61748 -0.0145 0.2)
(0.43249 0.05171 -0.2)
(0.43249 0.05171 0.2)
(0.4835 0.04859 -0.2)
(0.4835 0.04859 0.2)
(0.53499 0.04494 -0.2)
(0.53499 0.04494 0.2)
(0.58641 0.04086 -0.2)
(0.58641 0.04086 0.2)
(0.63717 0.03649 -0.2)
(0.63717 0.03649 0.2)
(0.66898 -0.01167 -0.2)
(0.66898 -0.01167 0.2)
(0.68673 0.03197 -0.2)
(0.68673 0.03197 0.2)
(0.71883 -0.00887 -0.2)
(0.71883 -0.00887 0.2)
(0.73449 0.02744 -0.2)
(0.73449 0.02744 0.2)
(0.77985 0.02304 -0.2)
(0.77985 0.02304 0.2)
(0.76644 -0.00628 -0.2)
(0.76644 -0.00628 0.2)
(0.82224 0.01884 -0.2)
(0.82224 0.01884 0.2)
(0.81118 -0.00403 -0.2)
(0.81118 -0.00403 0.2)
(0.86112 0.01494 0.2)
(0.86112 0.01494 -0.2)
(0.85241 -0.0022 -0.2)
(0.85241 -0.0022 0.2)
(0.896 0.01139 -0.2)
(0.896 0.01139 0.2)
(0.88957 -0.00082 -0.2)
(0.88957 -0.00082 0.2)
(0.92639 0.00824 -0.2)
(0.92639 0.00824 0.2)
(0.9221 8e-05 -0.2)
(0.9221 8e-05 0.2)
(0.95193 0.00547 -0.2)
(0.95193 0.00547 0.2)
(0.94952 0.00052 -0.2)
(0.94952 0.00052 0.2)
(0.97134 0.00057 -0.2)
(0.97134 0.00057 0.2)
(0.97235 0.0031 -0.2)
(0.97235 0.0031 0.2)
)


// edges:

117
(
(2 3)
(0 1)
(5 4)
(7 6)
(8 9)
(10 0)
(1 11)
(0 2)
(3 1)
(2 12)
(13 3)
(12 14)
(15 13)
(14 16)
(17 15)
(4 10)
(11 5)
(18 4)
(5 19)
(20 18)
(19 21)
(22 20)
(21 23)
(24 22)
(23 25)
(26 24)
(25 27)
(28 26)
(27 29)
(30 28)
(29 31)
(32 30)
(31 33)
(16 34)
(35 17)
(34 36)
(37 35)
(36 38)
(39 37)
(40 32)
(33 41)
(42 40)
(41 43)
(38 44)
(45 39)
(46 42)
(43 47)
(44 48)
(49 45)
(48 50)
(51 49)
(52 46)
(47 53)
(50 54)
(55 51)
(56 52)
(53 57)
(58 56)
(57 59)
(60 58)
(59 61)
(62 60)
(61 63)
(64 62)
(63 65)
(54 66)
(67 55)
(66 68)
(69 67)
(68 70)
(71 69)
(70 72)
(73 71)
(72 74)
(75 73)
(76 64)
(65 77)
(74 78)
(79 75)
(80 76)
(77 81)
(78 82)
(83 79)
(82 84)
(85 83)
(86 80)
(81 87)
(84 88)
(89 85)
(90 86)
(87 91)
(92 89)
(88 93)
(94 90)
(91 95)
(93 96)
(97 92)
(98 94)
(95 99)
(96 100)
(101 97)
(102 98)
(99 103)
(100 104)
(105 101)
(106 102)
(103 107)
(108 106)
(107 109)
(6 108)
(109 7)
(104 110)
(111 105)
(110 8)
(9 111)
(7 9)
(8 6)
)

// * * * * * * * * * * * * * * * * * * * * * * * * * * * * * * * * * * * * * //


// ************************************************************************* //
