/*--------------------------------*- C++ -*----------------------------------*\
| =========                 |                                                 |
| \\      /  F ield         | OpenFOAM: The Open Source CFD Toolbox           |
|  \\    /   O peration     | Version:  2206                                  |
|   \\  /    A nd           | Website:  www.openfoam.com                      |
|    \\/     M anipulation  |                                                 |
\*---------------------------------------------------------------------------*/
FoamFile
{
    version     2.0;
    format      ascii;
    arch        "LSB;label=64;scalar=64";
    class       featureEdgeMesh;
    location    "constant/triSurface";
    object      GeoShaft.eMesh;
}
// * * * * * * * * * * * * * * * * * * * * * * * * * * * * * * * * * * * * * //


// points:

1899
(
(17.804 33.5729 -74.3367)
(15.8784 34.5253 -71.6372)
(20.173 -32.2051 -74.3367)
(21.9606 -31.0137 -71.6372)
(-37.977 -1.36776 -74.3367)
(-37.839 -3.51159 -71.6372)
(-20.173 -32.2051 75.4167)
(-20.8683 -31.759 74.3787)
(-21.9606 -31.0137 72.7172)
(-17.804 33.5729 75.4167)
(-17.07 33.952 74.3787)
(-15.8784 34.5253 72.7172)
(37.977 -1.36776 75.4167)
(37.9382 -2.19296 74.3787)
(37.839 -3.51159 72.7172)
(37.7536 -4.33405 71.6783)
(-18.3876 33.2625 76.2471)
(38 -0.707107 76.2471)
(18.3876 33.2625 -75.1671)
(16.4783 34.2486 -72.4671)
(17.07 33.952 -73.2987)
(19.6124 -32.5554 -75.1671)
(21.421 -31.3949 -72.4671)
(-38 -0.707107 -75.1671)
(-37.8993 -2.85368 -72.4671)
(-37.9382 -2.19296 -73.2987)
(-19.6124 -32.5554 76.2471)
(-21.421 -31.3949 73.5471)
(-16.4783 34.2486 73.5471)
(37.8993 -2.85368 73.5471)
(37.6774 -4.99113 70.8471)
(9.06213 5.43404 -78.1723)
(9.10255 5.51303 -78.1723)
(9.02932 5.35145 -78.1723)
(8.98447 5.17918 -78.1723)
(8.98748 4.59869 -78.1723)
(8.96462 4.80245 -78.1723)
(8.96352 4.99685 -78.1723)
(1.94185 10.5828 -69.0974)
(1.92522 10.4894 -69.0604)
(2.11161 11.0384 -69.1657)
(2.05384 10.9288 -69.1642)
(2.00592 10.8154 -69.1521)
(1.9684 10.6995 -69.1298)
(1.90979 10.4016 -69.0117)
(1.89558 10.3196 -68.9525)
(1.88268 10.2441 -68.8845)
(1.87111 10.1756 -68.8091)
(1.86083 10.1139 -68.7275)
(1.84396 10.0105 -68.5505)
(1.83157 9.93212 -68.3597)
(0.253711 10.6561 -70.617)
(0.227908 10.6132 -70.6177)
(0.178733 10.542 -70.6178)
(0.123288 10.4753 -70.6178)
(-0.00267049 10.3556 -70.618)
(-0.146649 10.2516 -70.6182)
(-0.310604 10.1598 -70.6185)
(-0.492958 10.0812 -70.619)
(8.12848 6.87876 -79.7055)
(8.19918 6.93813 -79.6672)
(8.06198 6.82307 -79.7546)
(7.9999 6.77123 -79.8137)
(7.94266 6.72355 -79.8811)
(7.89056 6.68027 -79.9555)
(7.84359 6.64132 -80.0357)
(7.7647 6.57611 -80.2095)
(7.7048 6.52674 -80.3966)
(4.79766 9.71839 -75.1762)
(4.84198 9.80078 -75.1671)
(8.50572 7.30772 -79.5865)
(8.43994 7.20405 -79.5917)
(8.36635 7.10716 -79.6069)
(8.28575 7.0181 -79.6322)
(6.25582 20.9524 -70.2592)
(12.2579 31.2488 -69.9015)
(12.454 31.6112 -69.8729)
(12.625 31.9821 -69.8121)
(12.7696 32.3581 -69.7198)
(12.8863 32.7347 -69.597)
(12.9743 33.1085 -69.4447)
(13.0329 33.4756 -69.2646)
(13.0615 33.8315 -69.0589)
(13.0601 34.1735 -68.8292)
(13.0288 34.4989 -68.5772)
(12.9677 34.8039 -68.3056)
(12.8776 35.0846 -68.0178)
(12.7591 35.339 -67.7162)
(12.6131 35.5647 -67.4029)
(12.441 35.7587 -67.082)
(12.2448 35.9187 -66.7574)
(12.0258 36.0433 -66.4317)
(7.86099 20.9079 -68.8245)
(13.6104 30.7774 -68.4834)
(13.8033 31.1339 -68.4556)
(13.9717 31.4981 -68.3968)
(14.1144 31.867 -68.3077)
(14.2307 32.2379 -68.1888)
(14.319 32.6062 -68.0415)
(14.3787 32.9676 -67.8674)
(14.4095 33.3195 -67.6679)
(14.4112 33.6592 -67.4445)
(14.3836 33.9823 -67.1997)
(14.3271 34.2854 -66.9363)
(14.2423 34.5663 -66.6563)
(14.1294 34.8226 -66.3616)
(13.9896 35.0511 -66.0557)
(13.8241 35.2493 -65.7418)
(13.6342 35.4153 -65.4227)
(13.4219 35.547 -65.1023)
(6.01754 -9.01408 -75.1762)
(6.06673 -9.09367 -75.1671)
(2.07581 -11.02 -79.5865)
(2.01892 -10.9112 -79.5917)
(1.9718 -10.7991 -79.6069)
(1.93497 -10.6847 -79.6322)
(1.909 -10.5698 -79.6672)
(1.89294 -10.4789 -79.7055)
(1.87796 -10.3934 -79.7546)
(1.86411 -10.3137 -79.8137)
(1.85144 -10.2403 -79.8811)
(1.84 -10.1736 -79.9555)
(1.82976 -10.1134 -80.0357)
(1.81273 -10.0125 -80.2095)
(1.79993 -9.93592 -80.3966)
(-0.154358 -10.2611 -78.1723)
(-0.00693516 -10.3704 -78.1723)
(-0.323264 -10.1648 -78.1723)
(-0.511162 -10.0827 -78.1723)
(0.119828 -10.4953 -78.1723)
(0.174949 -10.5651 -78.1723)
(0.223152 -10.6396 -78.1723)
(8.19406 -6.97309 -69.0974)
(8.12149 -6.91199 -69.0604)
(8.50374 -7.34791 -69.1657)
(8.43768 -7.24306 -69.1642)
(8.36344 -7.14488 -69.1521)
(8.28186 -7.05444 -69.1298)
(8.05312 -6.8547 -69.0117)
(7.98923 -6.80141 -68.9525)
(7.93035 -6.75252 -68.8845)
(7.87678 -6.70823 -68.8091)
(7.82847 -6.66848 -68.7275)
(7.74736 -6.60217 -68.5505)
(7.68568 -6.55224 -68.3597)
(8.96959 -5.17551 -70.618)
(8.95146 -4.99879 -70.6182)
(9.01023 -5.34442 -70.6178)
(9.04026 -5.42578 -70.6178)
(9.07738 -5.50399 -70.6177)
(9.10159 -5.54776 -70.617)
(8.95397 -4.81092 -70.6185)
(8.97708 -4.6137 -70.619)
(15.0174 -15.8939 -70.2592)
(20.9333 -26.2401 -69.9015)
(21.1491 -26.5911 -69.8729)
(21.3848 -26.9246 -69.8121)
(21.6382 -27.2379 -69.7198)
(21.9059 -27.5272 -69.597)
(22.1856 -27.7903 -69.4447)
(22.4743 -28.0246 -69.2646)
(22.7682 -28.2273 -69.0589)
(23.065 -28.3972 -68.8292)
(23.3626 -28.5327 -68.5772)
(23.6572 -28.6323 -68.3056)
(23.9454 -28.6946 -68.0178)
(24.2249 -28.7192 -67.7162)
(24.4934 -28.7056 -67.4029)
(24.7474 -28.6536 -67.082)
(24.9841 -28.5636 -66.7574)
(25.2015 -28.4363 -66.4317)
(14.1763 -17.2618 -68.8245)
(19.8489 -27.1757 -68.4834)
(20.0611 -27.521 -68.4556)
(20.2923 -27.8488 -68.3968)
(20.5404 -28.157 -68.3077)
(20.8035 -28.4431 -68.1888)
(21.0782 -28.7037 -68.0415)
(21.3614 -28.9361 -67.8674)
(21.6507 -29.1388 -67.6679)
(21.9441 -29.31 -67.4445)
(22.2377 -29.4477 -67.1997)
(22.5285 -29.5504 -66.9363)
(22.8141 -29.6173 -66.6563)
(23.0925 -29.6477 -66.3616)
(23.3603 -29.6409 -66.0557)
(23.6147 -29.5967 -65.7418)
(23.8535 -29.5152 -65.4227)
(24.0737 -29.3972 -65.1023)
(-10.8151 -0.704301 -75.1762)
(-10.9087 -0.707107 -75.1671)
(-10.5815 3.71231 -79.5865)
(-10.4589 3.70718 -79.5917)
(-10.3382 3.6919 -79.6069)
(-10.2207 3.66662 -79.6322)
(-10.1082 3.63163 -79.6672)
(-10.0214 3.6001 -79.7055)
(-9.93994 3.57035 -79.7546)
(-9.86401 3.5425 -79.8137)
(-9.79409 3.51677 -79.8811)
(-9.73057 3.49329 -79.9555)
(-9.67335 3.47208 -80.0357)
(-9.57743 3.43637 -80.2095)
(-9.50472 3.40918 -80.3966)
(-9.23708 5.13102 -78.1723)
(-9.3257 5.12652 -78.1723)
(-9.14915 5.1439 -78.1723)
(-8.97754 5.19119 -78.1723)
(-8.47632 5.48405 -78.1723)
(-8.64135 5.36236 -78.1723)
(-8.80916 5.26421 -78.1723)
(-10.1359 -3.60972 -69.0974)
(-10.0467 -3.57742 -69.0604)
(-10.6153 -3.6905 -69.1657)
(-10.4915 -3.68572 -69.1642)
(-10.3694 -3.67052 -69.1521)
(-10.2503 -3.64508 -69.1298)
(-9.96291 -3.54686 -69.0117)
(-9.88481 -3.51817 -68.9525)
(-9.81303 -3.49163 -68.8845)
(-9.74789 -3.46737 -68.8091)
(-9.68931 -3.44542 -68.7275)
(-9.59132 -3.40833 -68.5505)
(-9.51725 -3.37988 -68.3597)
(-8.96692 -5.18014 -70.618)
(-8.80481 -5.25279 -70.6182)
(-9.13352 -5.13088 -70.6178)
(-9.219 -5.11621 -70.6178)
(-9.30529 -5.10925 -70.6177)
(-9.3553 -5.10832 -70.617)
(-8.64337 -5.3489 -70.6185)
(-8.48412 -5.46753 -70.619)
(-21.2732 -5.05852 -70.2592)
(-33.1912 -5.00871 -69.9015)
(-33.6031 -5.02012 -69.8729)
(-34.0098 -5.05748 -69.8121)
(-34.4078 -5.12026 -69.7198)
(-34.7922 -5.20747 -69.597)
(-35.16 -5.31815 -69.4447)
(-35.5071 -5.45098 -69.2646)
(-35.8297 -5.60415 -69.0589)
(-36.1252 -5.77634 -68.8292)
(-36.3913 -5.96622 -68.5772)
(-36.6249 -6.17163 -68.3056)
(-36.823 -6.39003 -68.0178)
(-36.984 -6.61974 -67.7162)
(-37.1065 -6.8591 -67.4029)
(-37.1884 -7.10514 -67.082)
(-37.2289 -7.35505 -66.7574)
(-37.2273 -7.607 -66.4317)
(-22.0373 -3.64615 -68.8245)
(-33.4592 -3.60179 -68.4834)
(-33.8644 -3.61295 -68.4556)
(-34.2639 -3.64922 -68.3968)
(-34.6548 -3.71004 -68.3077)
(-35.0342 -3.79484 -68.1888)
(-35.3973 -3.90243 -68.0415)
(-35.7401 -4.03143 -67.8674)
(-36.0603 -4.1807 -67.6679)
(-36.3553 -4.34914 -67.4445)
(-36.6213 -4.53459 -67.1997)
(-36.8556 -4.73503 -66.9363)
(-37.0564 -4.94897 -66.6563)
(-37.2219 -5.17489 -66.3616)
(-37.3499 -5.4102 -66.0557)
(-37.4388 -5.65264 -65.7418)
(-37.4877 -5.90011 -65.4227)
(-37.4956 -6.14981 -65.1023)
(-9.06213 5.43404 79.2523)
(-9.10255 5.51303 79.2523)
(-9.02932 5.35145 79.2523)
(-8.98447 5.17918 79.2523)
(-8.98748 4.59869 79.2523)
(-8.96462 4.80245 79.2523)
(-8.96352 4.99685 79.2523)
(-1.9684 10.6995 70.2098)
(-1.94185 10.5828 70.1774)
(-2.00592 10.8154 70.2321)
(-2.05384 10.9288 70.2442)
(-2.11161 11.0384 70.2457)
(-1.92522 10.4894 70.1404)
(-1.90979 10.4016 70.0917)
(-1.89558 10.3196 70.0325)
(-1.88268 10.2441 69.9645)
(-1.87111 10.1756 69.8891)
(-1.86083 10.1139 69.8075)
(-1.84396 10.0105 69.6305)
(-1.83157 9.93212 69.4397)
(-0.253711 10.6561 71.697)
(-0.227908 10.6132 71.6977)
(-0.178733 10.542 71.6978)
(-0.123288 10.4753 71.6978)
(0.00267049 10.3556 71.698)
(0.146649 10.2516 71.6982)
(0.310604 10.1598 71.6985)
(0.492958 10.0812 71.699)
(-4.79766 9.71839 76.2562)
(-4.84198 9.80078 76.2471)
(-8.50572 7.30772 80.6665)
(-8.43994 7.20405 80.6717)
(-8.36635 7.10716 80.6869)
(-8.28575 7.0181 80.7122)
(-8.19918 6.93813 80.7472)
(-8.12848 6.87876 80.7855)
(-8.06198 6.82307 80.8346)
(-7.9999 6.77123 80.8937)
(-7.94266 6.72355 80.9611)
(-7.89056 6.68027 81.0355)
(-7.84359 6.64132 81.1157)
(-7.7647 6.57611 81.2895)
(-7.7048 6.52674 81.4766)
(-25.09 36.0325 80.6665)
(-26.1719 39.3095 79.965)
(-26.0423 38.4806 80.2672)
(-26.2016 40.1167 79.5871)
(-26.1307 40.8857 79.1412)
(-25.9608 41.6009 78.6364)
(-25.6952 42.2477 78.083)
(-25.3393 42.813 77.4922)
(-24.9005 43.2853 76.8761)
(-24.3876 43.6548 76.2471)
(-25.8153 37.6469 80.4875)
(-25.4957 36.8252 80.6215)
(-6.25582 20.9524 71.3392)
(-12.2579 31.2488 70.9815)
(-12.454 31.6112 70.9529)
(-12.625 31.9821 70.8921)
(-12.7696 32.3581 70.7998)
(-12.8863 32.7347 70.677)
(-12.9743 33.1085 70.5247)
(-13.0329 33.4756 70.3446)
(-13.0615 33.8315 70.1389)
(-13.0601 34.1735 69.9092)
(-13.0288 34.4989 69.6572)
(-12.9677 34.8039 69.3856)
(-12.8776 35.0846 69.0978)
(-12.7591 35.339 68.7962)
(-12.6131 35.5647 68.4829)
(-12.441 35.7587 68.162)
(-12.2448 35.9187 67.8374)
(-12.0258 36.0433 67.5117)
(-7.86099 20.9079 69.9046)
(-13.6104 30.7774 69.5634)
(10.8151 -0.704301 76.2562)
(10.9087 -0.707107 76.2471)
(10.5815 3.71231 80.6665)
(10.4589 3.70718 80.6717)
(10.3382 3.6919 80.6869)
(10.2207 3.66662 80.7122)
(10.1082 3.63163 80.7472)
(10.0214 3.6001 80.7855)
(9.93994 3.57035 80.8346)
(9.86401 3.5425 80.8937)
(9.79409 3.51677 80.9611)
(9.73057 3.49329 81.0355)
(9.67335 3.47208 81.1157)
(9.57743 3.43637 81.2895)
(9.50472 3.40918 81.4766)
(9.23708 5.13102 79.2523)
(9.3257 5.12652 79.2523)
(9.14915 5.1439 79.2523)
(8.97754 5.19119 79.2523)
(8.47632 5.48405 79.2523)
(8.64135 5.36236 79.2523)
(8.80916 5.26421 79.2523)
(10.2503 -3.64508 70.2098)
(10.1359 -3.60972 70.1774)
(10.3694 -3.67052 70.2321)
(10.4915 -3.68572 70.2442)
(10.6153 -3.6905 70.2457)
(10.0467 -3.57742 70.1404)
(9.96291 -3.54686 70.0917)
(9.88481 -3.51817 70.0325)
(9.81303 -3.49163 69.9645)
(9.74789 -3.46737 69.8891)
(9.68931 -3.44542 69.8075)
(9.59132 -3.40833 69.6305)
(9.51725 -3.37988 69.4397)
(8.96692 -5.18014 71.698)
(8.80481 -5.25279 71.6982)
(9.13352 -5.13088 71.6978)
(9.219 -5.11621 71.6978)
(9.30529 -5.10925 71.6977)
(9.3553 -5.10832 71.697)
(8.64337 -5.3489 71.6985)
(8.48412 -5.46753 71.699)
(43.75 3.71231 80.6665)
(47.129 3.01074 79.965)
(46.3463 3.31294 80.2672)
(47.8429 2.63287 79.5871)
(48.4734 2.187 79.1412)
(49.0078 1.68221 78.6364)
(49.4352 1.12879 78.083)
(49.7468 0.537987 77.4922)
(49.9364 -0.0781581 76.8761)
(50 -0.707107 76.2471)
(45.5108 3.53329 80.4875)
(44.6395 3.66733 80.6215)
(21.2732 -5.05852 71.3392)
(33.1912 -5.00871 70.9815)
(33.6031 -5.02012 70.9529)
(34.0098 -5.05748 70.8921)
(34.4078 -5.12026 70.7998)
(34.7922 -5.20747 70.677)
(35.16 -5.31815 70.5247)
(35.5071 -5.45098 70.3446)
(35.8297 -5.60415 70.1389)
(36.1252 -5.77634 69.9092)
(36.3913 -5.96622 69.6572)
(36.6249 -6.17163 69.3856)
(36.823 -6.39003 69.0978)
(36.984 -6.61974 68.7962)
(37.1065 -6.8591 68.4829)
(37.1884 -7.10514 68.162)
(37.2289 -7.35505 67.8374)
(37.2273 -7.607 67.5117)
(22.0373 -3.64615 69.9046)
(33.4592 -3.60179 69.5634)
(0.154358 -10.2611 79.2523)
(0.00693516 -10.3704 79.2523)
(0.323264 -10.1648 79.2523)
(0.511162 -10.0827 79.2523)
(-0.119828 -10.4953 79.2523)
(-0.174949 -10.5651 79.2523)
(-0.223152 -10.6396 79.2523)
(-8.12149 -6.91199 70.1404)
(-8.19406 -6.97309 70.1774)
(-8.95146 -4.99879 71.6982)
(-8.95397 -4.81092 71.6985)
(-9.10159 -5.54776 71.697)
(-9.07738 -5.50399 71.6977)
(-9.04026 -5.42578 71.6978)
(-9.01023 -5.34442 71.6978)
(-8.96959 -5.17551 71.698)
(-8.97708 -4.6137 71.699)
(-7.68568 -6.55224 69.4397)
(-7.74736 -6.60217 69.6305)
(-7.82847 -6.66848 69.8075)
(-7.87678 -6.70823 69.8891)
(-7.93035 -6.75252 69.9645)
(-7.98923 -6.80141 70.0325)
(-8.05312 -6.8547 70.0917)
(-6.01754 -9.01408 76.2562)
(-6.06673 -9.09367 76.2471)
(-2.07581 -11.02 80.6665)
(-2.01892 -10.9112 80.6717)
(-1.9718 -10.7991 80.6869)
(-1.93497 -10.6847 80.7122)
(-1.909 -10.5698 80.7472)
(-1.89294 -10.4789 80.7855)
(-1.87796 -10.3934 80.8346)
(-1.86411 -10.3137 80.8937)
(-1.85144 -10.2403 80.9611)
(-1.84 -10.1736 81.0355)
(-1.82976 -10.1134 81.1157)
(-1.81273 -10.0125 81.2895)
(-1.79993 -9.93592 81.4766)
(-8.50374 -7.34791 70.2457)
(-8.43768 -7.24306 70.2442)
(-8.36344 -7.14488 70.2321)
(-8.28186 -7.05444 70.2098)
(-14.1763 -17.2618 69.9046)
(-20.0611 -27.521 69.5356)
(-19.8489 -27.1757 69.5634)
(-20.2923 -27.8488 69.4768)
(-20.5404 -28.157 69.3877)
(-20.8035 -28.4431 69.2688)
(-21.0782 -28.7037 69.1215)
(-21.3614 -28.9361 68.9474)
(-21.6507 -29.1388 68.7479)
(-21.9441 -29.31 68.5245)
(-22.2377 -29.4477 68.2797)
(-22.5285 -29.5504 68.0163)
(-22.8141 -29.6173 67.7363)
(-23.0925 -29.6477 67.4416)
(-23.3603 -29.6409 67.1357)
(-23.6147 -29.5967 66.8218)
(-23.8535 -29.5152 66.5027)
(-24.0737 -29.3972 66.1823)
(-21.8223 -43.9902 77.2222)
(-22.5153 -44.0836 76.6688)
(-21.118 -43.7798 77.727)
(-20.4166 -43.4567 78.1729)
(-19.7324 -43.0274 78.5507)
(-19.0793 -42.5007 78.8529)
(-18.4707 -41.8873 79.0733)
(-17.919 -41.1997 79.2073)
(-17.4353 -40.4519 79.2523)
(-23.1828 -44.0581 76.078)
(-23.8111 -43.9142 75.4618)
(-24.3876 -43.6548 74.8329)
(-18.66 -39.7448 80.6665)
(5 -6.72257e-14 215.54)
(4.93525 -0.802056 215.54)
(4.93525 0.802056 215.54)
(4.74268 1.58334 215.54)
(4.42728 2.32362 215.54)
(3.99721 3.00371 215.54)
(3.46362 3.60601 215.54)
(2.84032 4.11492 215.54)
(2.14346 4.51725 215.54)
(1.39109 4.80259 215.54)
(0.602683 4.96354 215.54)
(-0.20133 4.99594 215.54)
(-1.00013 4.89895 215.54)
(-1.77302 4.67508 215.54)
(-2.5 4.33013 215.54)
(-3.16223 3.87302 215.54)
(-3.74255 3.31561 215.54)
(-4.22595 2.67233 215.54)
(-4.5999 1.95983 215.54)
(-4.85471 1.19658 215.54)
(-4.98379 0.402333 215.54)
(-4.98379 -0.402333 215.54)
(-4.85471 -1.19658 215.54)
(-4.5999 -1.95983 215.54)
(-4.22595 -2.67233 215.54)
(-3.74255 -3.31561 215.54)
(-3.16223 -3.87302 215.54)
(-2.5 -4.33013 215.54)
(-1.77302 -4.67508 215.54)
(-1.00013 -4.89895 215.54)
(-0.20133 -4.99594 215.54)
(0.602683 -4.96354 215.54)
(1.39109 -4.80259 215.54)
(2.14346 -4.51725 215.54)
(2.84032 -4.11492 215.54)
(3.46362 -3.60601 215.54)
(3.99721 -3.00371 215.54)
(4.42728 -2.32362 215.54)
(4.74268 -1.58334 215.54)
(27.1855 40.8938 -76.1422)
(26.9199 41.5406 -75.5888)
(27.3555 40.1786 -76.647)
(27.4263 39.4096 -77.0929)
(27.3966 38.6024 -77.4707)
(27.267 37.7735 -77.7729)
(27.0401 36.9398 -77.9933)
(26.7205 36.1181 -78.1273)
(26.3147 35.3253 -78.1723)
(26.5641 42.1059 -74.998)
(26.1252 42.5781 -74.3818)
(25.6124 42.9477 -73.7529)
(11.8574 36.1096 -66.2044)
(13.256 35.6199 -64.8752)
(24.9005 43.2853 -75.7961)
(24.3876 43.6548 -75.1671)
(25.3393 42.813 -76.4122)
(25.6952 42.2477 -77.003)
(25.9608 41.6009 -77.5564)
(26.1307 40.8857 -78.0612)
(26.2016 40.1167 -78.5071)
(26.1719 39.3095 -78.885)
(26.0423 38.4806 -79.1872)
(25.8153 37.6469 -79.4075)
(25.4957 36.8252 -79.5415)
(25.09 36.0325 -79.5865)
(17.8769 33.5341 -74.4405)
(17.7309 33.6115 -74.2329)
(17.6578 33.65 -74.1291)
(17.5846 33.6883 -74.0253)
(17.5114 33.7264 -73.9215)
(17.438 33.7644 -73.8177)
(17.3645 33.8022 -73.7139)
(17.2174 33.8774 -73.5063)
(17.291 33.8399 -73.6101)
(17.1437 33.9148 -73.4025)
(15.9534 34.4907 -71.7411)
(15.8032 34.5598 -71.5333)
(15.728 34.5941 -71.4294)
(15.6526 34.6282 -71.3255)
(15.5773 34.6622 -71.2216)
(15.5018 34.696 -71.1177)
(14.5163 35.1252 -69.7671)
(15.0475 34.8954 -70.4944)
(15.1234 34.8626 -70.5983)
(15.1992 34.8296 -70.7022)
(15.275 34.7965 -70.8061)
(15.3507 34.7631 -70.91)
(15.4263 34.7297 -71.0138)
(21.8223 -43.9902 -76.1422)
(22.5153 -44.0836 -75.5888)
(21.118 -43.7798 -76.647)
(20.4166 -43.4567 -77.0929)
(19.7324 -43.0274 -77.4707)
(19.0793 -42.5007 -77.7729)
(18.4707 -41.8873 -77.9933)
(17.919 -41.1997 -78.1273)
(17.4353 -40.4519 -78.1723)
(23.1828 -44.0581 -74.998)
(23.8111 -43.9142 -74.3818)
(24.3876 -43.6548 -73.7529)
(25.3431 -28.3236 -66.2044)
(24.2198 -29.29 -64.8752)
(25.0359 -43.2071 -75.7961)
(25.6124 -42.9477 -75.1671)
(24.4075 -43.351 -76.4122)
(23.74 -43.3765 -77.003)
(23.0471 -43.2831 -77.5564)
(22.3427 -43.0727 -78.0612)
(21.6413 -42.7496 -78.5071)
(20.9571 -42.3203 -78.885)
(20.3041 -41.7936 -79.1872)
(19.6955 -41.1802 -79.4075)
(19.1437 -40.4926 -79.5415)
(18.66 -39.7448 -79.5865)
(20.1029 -32.2489 -74.4405)
(20.243 -32.1612 -74.2329)
(20.3128 -32.1171 -74.1291)
(20.3826 -32.0729 -74.0253)
(20.4523 -32.0285 -73.9215)
(20.5218 -31.984 -73.8177)
(20.5913 -31.9393 -73.7139)
(20.73 -31.8494 -73.5063)
(20.6607 -31.8944 -73.6101)
(20.7992 -31.8043 -73.4025)
(20.8683 -31.759 -73.2987)
(21.8931 -31.0614 -71.7411)
(22.028 -30.9659 -71.5333)
(22.0954 -30.9179 -71.4294)
(22.1626 -30.8697 -71.3255)
(22.2297 -30.8214 -71.2216)
(22.2967 -30.773 -71.1177)
(23.1612 -30.134 -69.7671)
(22.6966 -30.4793 -70.4944)
(22.6302 -30.5286 -70.5983)
(22.5637 -30.5777 -70.7022)
(22.4971 -30.6268 -70.8061)
(22.4304 -30.6756 -70.91)
(22.3636 -30.7244 -71.0138)
(-37.4757 -6.32994 -64.8752)
(-37.2005 -7.78599 -66.2044)
(-36.8291 -9.3871 -64.1394)
(-37.167 -7.94431 -62.8102)
(-36.7888 -9.54382 -60.7452)
(-36.3418 -11.1255 -58.6802)
(-35.8268 -12.6863 -56.6152)
(-35.2448 -14.2235 -54.5502)
(-34.5968 -15.734 -52.4852)
(-33.8842 -17.2151 -50.4202)
(-33.1082 -18.664 -48.3552)
(-32.2703 -20.078 -46.2902)
(-31.3721 -21.4545 -44.2253)
(-30.4151 -22.7908 -42.1603)
(-29.4013 -24.0845 -40.0953)
(-28.3325 -25.3332 -38.0303)
(-27.2107 -26.5345 -35.9653)
(-26.038 -27.6861 -33.9003)
(-24.8167 -28.786 -31.8353)
(-23.5489 -29.832 -29.7703)
(-22.237 -30.8223 -27.7053)
(-20.8836 -31.7549 -25.6403)
(-19.4912 -32.6281 -23.5753)
(-18.0622 -33.4403 -21.5103)
(-16.5995 -34.19 -19.4453)
(-15.1058 -34.8757 -17.3803)
(-13.5838 -35.4962 -15.3153)
(-12.0364 -36.0503 -13.2503)
(-10.4665 -36.537 -11.1853)
(-8.87697 -36.9554 -9.12035)
(-7.27088 -37.3046 -7.05535)
(-5.65119 -37.5841 -4.99036)
(-4.02093 -37.7933 -2.92536)
(-2.38315 -37.9318 -0.860375)
(-0.740919 -37.9994 1.20462)
(0.902701 -37.9959 3.26961)
(2.54463 -37.9213 5.33461)
(4.18181 -37.7758 7.3996)
(5.81116 -37.5597 9.4646)
(7.42964 -37.2733 11.5296)
(9.03423 -36.9172 13.5946)
(10.6219 -36.4921 15.6596)
(12.1898 -35.9987 17.7246)
(13.7348 -35.4381 19.7896)
(15.2541 -34.8111 21.8546)
(16.7449 -34.119 23.9196)
(18.2044 -33.3631 25.9846)
(19.6299 -32.5448 28.0495)
(21.0186 -31.6657 30.1145)
(22.3681 -30.7273 32.1795)
(23.6757 -29.7315 34.2445)
(24.939 -28.6801 36.3095)
(26.1557 -27.575 38.3745)
(27.3234 -26.4184 40.4395)
(28.4401 -25.2123 42.5045)
(29.5036 -23.9591 44.5695)
(30.5119 -22.6611 46.6345)
(31.4631 -21.3207 48.6995)
(32.3555 -19.9404 50.7645)
(33.1874 -18.5229 52.8295)
(33.9572 -17.0707 54.8945)
(34.6635 -15.5866 56.9595)
(35.305 -14.0733 59.0245)
(35.8805 -12.5337 61.0895)
(36.3888 -10.9707 63.1544)
(36.8291 -9.3871 65.2194)
(37.2005 -7.78599 67.2844)
(37.4757 -6.32994 65.9552)
(37.167 -7.94431 63.8902)
(36.7888 -9.54382 61.8252)
(36.3418 -11.1255 59.7602)
(35.8268 -12.6863 57.6952)
(35.2448 -14.2235 55.6302)
(34.5968 -15.734 53.5652)
(33.8842 -17.2151 51.5002)
(33.1082 -18.664 49.4352)
(32.2703 -20.078 47.3702)
(31.3721 -21.4545 45.3052)
(30.4151 -22.7908 43.2403)
(29.4013 -24.0845 41.1753)
(28.3325 -25.3332 39.1103)
(27.2107 -26.5345 37.0453)
(26.038 -27.6861 34.9803)
(24.8167 -28.786 32.9153)
(23.5489 -29.832 30.8503)
(22.237 -30.8223 28.7853)
(20.8836 -31.7549 26.7203)
(19.4912 -32.6281 24.6553)
(18.0622 -33.4403 22.5903)
(16.5995 -34.19 20.5253)
(15.1058 -34.8757 18.4603)
(13.5838 -35.4962 16.3953)
(12.0364 -36.0503 14.3303)
(10.4665 -36.537 12.2653)
(8.87697 -36.9554 10.2003)
(7.27088 -37.3046 8.13536)
(5.65119 -37.5841 6.07036)
(4.02093 -37.7933 4.00537)
(2.38315 -37.9318 1.94037)
(0.740919 -37.9994 -0.124619)
(-0.902701 -37.9959 -2.18961)
(-2.54463 -37.9213 -4.25461)
(-4.18181 -37.7758 -6.3196)
(-5.81116 -37.5597 -8.3846)
(-7.42964 -37.2733 -10.4496)
(-9.03423 -36.9172 -12.5146)
(-10.6219 -36.4921 -14.5796)
(-12.1898 -35.9987 -16.6446)
(-13.7348 -35.4381 -18.7096)
(-15.2541 -34.8111 -20.7746)
(-16.7449 -34.119 -22.8396)
(-18.2044 -33.3631 -24.9045)
(-19.6299 -32.5448 -26.9695)
(-21.0186 -31.6657 -29.0345)
(-22.3681 -30.7273 -31.0995)
(-23.6757 -29.7315 -33.1645)
(-24.939 -28.6801 -35.2295)
(-26.1557 -27.575 -37.2945)
(-27.3234 -26.4184 -39.3595)
(-28.4401 -25.2123 -41.4245)
(-29.5036 -23.9591 -43.4895)
(-30.5119 -22.6611 -45.5545)
(-31.4631 -21.3207 -47.6195)
(-32.3555 -19.9404 -49.6845)
(-33.1874 -18.5229 -51.7495)
(-33.9572 -17.0707 -53.8145)
(-34.6635 -15.5866 -55.8795)
(-35.305 -14.0733 -57.9445)
(-35.8805 -12.5337 -60.0094)
(-36.3888 -10.9707 -62.0744)
(-50 0.707107 -73.7529)
(-49.9364 1.33606 -74.3818)
(-49.9364 -0.0781581 -75.7961)
(-50 -0.707107 -75.1671)
(-49.7468 1.9522 -74.998)
(-49.7468 0.537987 -76.4122)
(-49.4352 2.543 -75.5888)
(-49.4352 1.12879 -77.003)
(-49.0078 3.09642 -76.1422)
(-49.0078 1.68221 -77.5564)
(-48.4734 3.60121 -76.647)
(-48.4734 2.187 -78.0612)
(-47.8429 2.63287 -78.5071)
(-47.8429 4.04708 -77.0929)
(-47.129 4.42496 -77.4707)
(-47.129 3.01074 -78.885)
(-46.3463 4.72715 -77.7729)
(-46.3463 3.31294 -79.1872)
(-45.5108 4.94751 -77.9933)
(-45.5108 3.53329 -79.4075)
(-44.6395 5.08154 -78.1273)
(-44.6395 3.66733 -79.5415)
(-43.75 5.12652 -78.1723)
(-43.75 3.71231 -79.5865)
(-37.9798 -1.28519 -74.4405)
(-37.9739 -1.45031 -74.2329)
(-37.9706 -1.53286 -74.1291)
(-37.9672 -1.6154 -74.0253)
(-37.9636 -1.69794 -73.9215)
(-37.9598 -1.78046 -73.8177)
(-37.9559 -1.86298 -73.7139)
(-37.9474 -2.02799 -73.5063)
(-37.9517 -1.94549 -73.6101)
(-37.9429 -2.11048 -73.4025)
(-37.8465 -3.42924 -71.7411)
(-37.8312 -3.59392 -71.5333)
(-37.8233 -3.67623 -71.4294)
(-37.8152 -3.75852 -71.3255)
(-37.807 -3.8408 -71.2216)
(-37.7985 -3.92305 -71.1177)
(-37.6774 -4.99113 -69.7671)
(-37.7441 -4.41619 -70.4944)
(-37.7536 -4.33405 -70.5983)
(-37.763 -4.25189 -70.7022)
(-37.7721 -4.16971 -70.8061)
(-37.7811 -4.08751 -70.91)
(-37.7899 -4.00529 -71.0138)
(-15.0174 -15.8939 71.3392)
(-20.9333 -26.2401 70.9815)
(-25.0359 -43.2071 76.8761)
(-25.6124 -42.9477 76.2471)
(-24.4075 -43.351 77.4922)
(-23.74 -43.3765 78.083)
(-23.0471 -43.2831 78.6364)
(-22.3427 -43.0727 79.1412)
(-21.6413 -42.7496 79.5871)
(-20.9571 -42.3203 79.965)
(-20.3041 -41.7936 80.2672)
(-19.6955 -41.1802 80.4875)
(-19.1437 -40.4926 80.6215)
(-25.2015 -28.4363 67.5117)
(-24.9841 -28.5636 67.8374)
(-21.3848 -26.9246 70.8921)
(-21.1491 -26.5911 70.9529)
(-24.7474 -28.6536 68.162)
(-24.4934 -28.7056 68.4829)
(-24.2249 -28.7192 68.7962)
(-23.9454 -28.6946 69.0978)
(-23.6572 -28.6323 69.3856)
(-23.3626 -28.5327 69.6572)
(-23.065 -28.3972 69.9092)
(-22.7682 -28.2273 70.1389)
(-22.4743 -28.0246 70.3446)
(-22.1856 -27.7903 70.5247)
(-21.9059 -27.5272 70.677)
(-21.6382 -27.2379 70.7998)
(-24.2198 -29.29 65.9552)
(-25.3431 -28.3236 67.2844)
(10.2851 36.5885 -64.1394)
(11.7035 36.1597 -62.8102)
(10.1292 36.6319 -60.7452)
(8.53593 37.0356 -58.6802)
(6.92669 37.3701 -56.6152)
(5.30449 37.6346 -54.5502)
(2.19496 37.9431 -53.8145)
(3.8334 37.8128 -55.8795)
(0.552409 38.0026 -51.7495)
(-1.09117 37.9909 -49.6845)
(-2.73271 37.9082 -47.6195)
(-4.36914 37.7546 -45.5545)
(-5.9974 37.5304 -43.4895)
(-7.61445 37.236 -41.4245)
(-9.21725 36.872 -39.3595)
(-10.8028 36.439 -37.2945)
(-12.3682 35.9378 -35.2295)
(-13.9104 35.3695 -33.1645)
(-15.4266 34.735 -31.0995)
(-16.914 34.0355 -29.0345)
(-18.3697 33.2724 -26.9695)
(-19.7911 32.4471 -24.9045)
(-21.1755 31.5611 -22.8396)
(-22.5202 30.616 -20.7746)
(-23.8229 29.6137 -18.7096)
(-25.081 28.556 -16.6446)
(-26.2921 27.4449 -14.5796)
(-27.4542 26.2825 -12.5146)
(-28.5648 25.0709 -10.4496)
(-29.6221 23.8125 -8.3846)
(-30.6239 22.5095 -6.3196)
(-31.5685 21.1644 -4.25461)
(-32.454 19.7797 -2.18961)
(-33.2789 18.358 -0.124619)
(-34.0415 16.902 1.94037)
(-34.7404 15.4144 4.00537)
(-35.3744 13.898 6.07036)
(-35.9422 12.3555 8.13536)
(-36.4428 10.79 10.2003)
(-36.8752 9.20429 12.2653)
(-37.2387 7.60136 14.3303)
(-37.5325 5.98421 16.3953)
(-37.7561 4.35587 18.4603)
(-37.9092 2.71939 20.5253)
(-37.9913 1.07782 22.5903)
(-38.0024 -0.565767 24.6553)
(-37.9424 -2.20829 26.7203)
(-37.8114 -3.84669 28.7853)
(-37.6097 -5.4779 30.8503)
(-37.3377 -7.09886 32.9153)
(-36.9959 -8.70654 34.9803)
(-36.5849 -10.2979 37.0453)
(-36.1054 -11.8701 39.1103)
(-35.5584 -13.42 41.1753)
(-34.945 -14.9449 43.2403)
(-34.2661 -16.4418 45.3052)
(-33.5232 -17.9079 47.3702)
(-32.7176 -19.3406 49.4352)
(-31.8508 -20.737 51.5002)
(-30.9245 -22.0947 53.5652)
(-29.9403 -23.4111 55.6302)
(-28.9001 -24.6837 57.6952)
(-27.8058 -25.9101 59.7602)
(-26.6596 -27.0881 61.8252)
(-25.4635 -28.2154 63.8902)
(3.67237 37.8287 -52.4852)
(2.03339 37.9521 -50.4202)
(0.390602 38.0046 -48.3552)
(-1.25292 37.9859 -46.2902)
(-2.89409 37.8962 -44.2253)
(-4.52985 37.7357 -42.1603)
(-6.15714 37.5045 -40.0953)
(-7.77292 37.2033 -38.0303)
(-9.37416 36.8324 -35.9653)
(-10.9579 36.3927 -33.9003)
(-12.5211 35.8849 -31.8353)
(-14.0609 35.3099 -29.7703)
(-15.5744 34.669 -27.7053)
(-17.0587 33.9632 -25.6403)
(-18.5112 33.1939 -23.5753)
(-19.9291 32.3625 -21.5103)
(-21.3096 31.4706 -19.4453)
(-22.6504 30.5198 -17.3803)
(-23.9487 29.512 -15.3153)
(-25.2023 28.449 -13.2503)
(-26.4088 27.3327 -11.1853)
(-27.5658 26.1654 -9.12035)
(-28.6713 24.9491 -7.05535)
(-29.7232 23.6861 -4.99036)
(-30.7195 22.3789 -2.92536)
(-31.6583 21.0298 -0.860375)
(-32.5379 19.6413 1.20462)
(-33.3567 18.2162 3.26961)
(-34.1131 16.7569 5.33461)
(-34.8057 15.2664 7.3996)
(-35.4332 13.7472 9.4646)
(-35.9945 12.2024 11.5296)
(-36.4884 10.6347 13.5946)
(-36.9141 9.0472 15.6596)
(-37.2707 7.44274 17.7246)
(-37.5576 5.82436 19.7896)
(-37.7743 4.19508 21.8546)
(-37.9204 2.55796 23.9196)
(-37.9955 0.916056 25.9846)
(-37.9996 -0.727563 28.0495)
(-37.9326 -2.36982 30.1145)
(-37.7947 -4.00765 32.1795)
(-37.5861 -5.63798 34.2445)
(-37.3072 -7.25776 36.3095)
(-36.9585 -8.86398 38.3745)
(-36.5407 -10.4536 40.4395)
(-36.0546 -12.0237 42.5045)
(-35.501 -13.5713 44.5695)
(-34.881 -15.0935 46.6345)
(-34.1958 -16.5875 48.6995)
(-33.4467 -18.0505 50.7645)
(-32.635 -19.4797 52.8295)
(-31.7622 -20.8725 54.8945)
(-30.8301 -22.2262 56.9595)
(-29.8403 -23.5384 59.0245)
(-28.7947 -24.8065 61.0895)
(-27.6953 -26.0283 63.1544)
(-26.544 -27.2014 65.2194)
(5.46468 37.6117 -57.9445)
(7.08573 37.3402 -60.0094)
(8.69354 36.999 -62.0744)
(-21.3961 -31.4119 70.394)
(-22.0181 -30.9668 69.4329)
(-22.8326 -30.3838 68.1746)
(-20.1029 -32.2489 75.5205)
(-20.243 -32.1612 75.3129)
(-20.3128 -32.1171 75.2091)
(-20.3826 -32.0729 75.1053)
(-20.4523 -32.0285 75.0015)
(-20.5218 -31.984 74.8977)
(-20.5913 -31.9393 74.7939)
(-20.6607 -31.8944 74.6901)
(-20.73 -31.8494 74.5863)
(-20.7992 -31.8043 74.4825)
(-20.9373 -31.7136 74.2749)
(-21.8931 -31.0614 72.8211)
(-22.028 -30.9659 72.6133)
(-22.0954 -30.9179 72.5094)
(-22.1626 -30.8697 72.4055)
(-22.2297 -30.8214 72.3016)
(-22.2967 -30.773 72.1977)
(-23.1612 -30.134 70.8471)
(-22.6966 -30.4793 71.5744)
(-22.6302 -30.5286 71.6783)
(-22.5637 -30.5777 71.7822)
(-22.4971 -30.6268 71.886)
(-22.4304 -30.6756 71.9899)
(-22.3636 -30.7244 72.0938)
(-27.6889 -41.6392 73.9034)
(-29.6987 -40.2305 71.5596)
(-30.5292 -39.6039 67.8016)
(-28.5491 -41.0542 70.1454)
(-32.4357 -38.0582 65.4579)
(-33.4989 -37.1258 66.8721)
(-35.2802 -35.4373 64.5284)
(-31.6369 -38.7248 69.2159)
(-36.9766 -33.6635 62.1846)
(-38.5838 -31.8086 59.8409)
(-39.2372 -30.9991 56.0829)
(-37.6689 -32.887 58.4266)
(-40.711 -29.0364 53.7391)
(-41.5158 -27.8736 55.1534)
(-42.8335 -25.8029 52.8096)
(-40.0981 -29.8771 57.4971)
(-44.048 -23.6701 50.4659)
(-44.5309 -22.7486 46.7079)
(-43.361 -24.9062 49.0516)
(-45.5935 -20.5362 44.3641)
(-46.156 -19.2387 45.7784)
(-47.0444 -16.9507 43.4346)
(-45.1564 -21.4802 48.1221)
(-47.8194 -14.6219 41.0909)
(-48.4793 -12.2579 38.7471)
(-48.7238 -11.2467 34.9891)
(-48.1133 -13.624 37.3329)
(-49.217 -8.84244 32.6454)
(-49.4473 -7.44711 34.0596)
(-49.7532 -5.01187 31.7159)
(-49.0224 -9.86441 36.4034)
(-49.9392 -2.56456 29.3721)
(-49.9817 -1.5251 25.6141)
(-49.8467 -3.97575 27.9579)
(-49.9964 0.929226 23.2704)
(-49.8905 3.38131 20.9266)
(-49.6645 5.82525 18.5829)
(-49.3189 8.25516 16.2391)
(-48.8544 10.6652 13.8954)
(-48.2723 13.0495 11.5516)
(-47.5738 15.4024 9.20789)
(-46.7607 17.7182 6.86414)
(-45.835 19.9913 4.52039)
(-44.7989 22.2162 2.17664)
(-43.6548 24.3876 -0.167108)
(-42.4056 26.5003 -2.51086)
(-41.0542 28.5491 -4.85461)
(-39.6039 30.5292 -7.19836)
(-38.0582 32.4357 -9.54211)
(-36.4208 34.264 -11.8859)
(-34.6957 36.0098 -14.2296)
(-32.887 37.6689 -16.5734)
(-30.9991 39.2372 -18.9171)
(-29.0364 40.711 -21.2609)
(-27.0039 42.0867 -23.6046)
(-24.9062 43.361 -25.9484)
(-22.7486 44.5309 -28.2921)
(-20.5362 45.5935 -30.6359)
(-18.2743 46.5462 -32.9796)
(-15.9684 47.3868 -35.3234)
(-13.624 48.1133 -37.6671)
(-11.2467 48.7238 -40.0109)
(-8.84244 49.217 -42.3546)
(-6.41682 49.5916 -44.6984)
(-3.97575 49.8467 -47.0421)
(-1.5251 49.9817 -49.3859)
(0.929226 49.9964 -51.7296)
(3.38131 49.8905 -54.0734)
(4.7908 49.775 -52.6591)
(7.22737 49.4799 -55.0029)
(-50.0049 -0.111074 27.0284)
(-49.9501 2.34268 24.6846)