/*--------------------------------*- C++ -*----------------------------------*\
| =========                 |                                                 |
| \\      /  F ield         | OpenFOAM: The Open Source CFD Toolbox           |
|  \\    /   O peration     | Version:  v2212                                 |
|   \\  /    A nd           | Website:  www.openfoam.com                      |
|    \\/     M anipulation  |                                                 |
\*---------------------------------------------------------------------------*/
FoamFile
{
    version     2.0;
    format      ascii;
    class       volScalarField;
    object      epsilon;
}
// * * * * * * * * * * * * * * * * * * * * * * * * * * * * * * * * * * * * * //

dimensions      [0 2 -3 0 0 0 0];

internalField   uniform 0.0015;

boundaryField   
{
    #include            "include/ABLConditions"

    inlet
    {
        type            fixedValue;
        value           $internalField;
    }

    outlet
    {
        type            zeroGradient;
    }

    upperAtm
    {
        type            zeroGradient;
    }

    ground
    {
        type            epsilonWallFunction;
        value           uniform 0.118;
    }

    frontAtm
    {
        type            cyclic;
    }

    backAtm
    {
        type            cyclic;
    }
}


// ************************************************************************* //
