/*--------------------------------*- C++ -*----------------------------------*\
| =========                 |                                                 |
| \\      /  F ield         | OpenFOAM: The Open Source CFD Toolbox           |
|  \\    /   O peration     | Version:  v2212                                 |
|   \\  /    A nd           | Website:  www.openfoam.com                      |
|    \\/     M anipulation  |                                                 |
\*---------------------------------------------------------------------------*/
FoamFile
{
    version     2.0;
    format      ascii;
    class       dictionary;
    object      controlDict;
}
// * * * * * * * * * * * * * * * * * * * * * * * * * * * * * * * * * * * * * //

application     simpleFoam;

startFrom       startTime;

startTime       0;

stopAt          endTime;

endTime         5000;

deltaT          1;

writeControl    timeStep;

writeInterval   100;

purgeWrite      0;

writeFormat     ascii;

writePrecision  6;

writeCompression off;

timeFormat      general;

timePrecision   6;

runTimeModifiable true;

functions
{
    momErr
    {
        type            momentumError;
        libs            (fieldFunctionObjects);
        executeControl  writeTime;
        writeControl    writeTime;
    }

    contErr
    {
        type            div;
        libs            (fieldFunctionObjects);
        field           phi;
        executeControl  writeTime;
        writeControl    writeTime;
    }


    turbulenceFields1
    {
        type            turbulenceFields;
        libs            (fieldFunctionObjects);
        fields
        (
            k
            epsilon
            nut
            nuEff
            R
            devReff
            L
            I
        );

        executeControl  writeTime;
        writeControl    writeTime;
    }

    mag1
    {
        type            mag;
        libs            (fieldFunctionObjects);
        field           turbulenceProperties:R;

        result          magR;
        executeControl  writeTime;
        writeControl    writeTime;
    }

    forceCoeffs
    {
        type                forceCoeffs;
        functionObjectLibs  ("libforces.so");
        writeControl	    runTime;
        writeInterval	    $writeInterval;

    
        patches             ("walls");
        rho			        rhoInf;
        log                 true;
        
        liftDir             (0 1 0);
        dragDir             (1 0 0);
        pitchAxis           (0 0 1);	//specify axis
        CofR                (0.25 0 0);	//specify axis
        
        magUInf             26;
        rhoInf              1.2;

        // lRef                1.0;
        // Aref                1.0e-4;

        lRef                35.2;
        Aref                1.76;
    }

    yPlus
    {
        type        	    yPlus;
        writeControl	    runTime;
        writeInterval	    $writeInterval;

        libs        	    ("libfieldFunctionObjects.so");
    }
}


// ************************************************************************* //
