/*--------------------------------*- C++ -*----------------------------------*\
| =========                 |                                                 |
| \\      /  F ield         | OpenFOAM: The Open Source CFD Toolbox           |
|  \\    /   O peration     | Version:  2212                                  |
|   \\  /    A nd           | Website:  www.openfoam.com                      |
|    \\/     M anipulation  |                                                 |
\*---------------------------------------------------------------------------*/
FoamFile
{
    version     2.0;
    format      ascii;
    arch        "LSB;label=64;scalar=64";
    class       extendedFeatureEdgeMesh;
    location    "constant/extendedFeatureEdgeMesh";
    object      icedAirfoil_0_0.extendedFeatureEdgeMesh;
}
// * * * * * * * * * * * * * * * * * * * * * * * * * * * * * * * * * * * * * //

// points

12
(
(0.00025 -0.00186 1)
(0.01117 0.014896 1)
(0.01117 0.014896 -1)
(0.00025 -0.00186 1)
(0.00025 -0.00186 -1)
(0.00025 -0.00186 -0.409056)
(0.011167 0.014899 1)
(0.011167 0.014899 -1)
(1.00001 0 1)
(1.00001 0 -1)
(0.00025 -0.00186 -1)
(0.00025 -0.00186 1)
)

// edges

12
(
(1 2)
(6 1)
(2 7)
(10 0)
(4 0)
(5 0)
(3 5)
(0 3)
(4 3)
(8 9)
(10 11)
(4 5)
)

// concaveStart mixedStart nonFeatureStart
4 4 6
// internalStart flatStart openStart multipleStart
9 11 11 11
// normals

16
(
(0 0 0)
(0 0 0)
(0 0 0)
(0.603180211 -0.7976049354 0)
(0.7071067812 0.7071067812 0)
(0.7071067812 0.7071067812 -0)
(0 0 1)
(0 0 -1)
(0 1 -0)
(-0.09642360015 -0.9953403887 0)
(0.7891224799 0.6142358763 0)
(0 0 0)
(0 0 0)
(0 0 0)
(0 0 0)
(-0.6273037629 -0.7787746715 -0)
)

// normal volume types

16
(
0
0
0
0
0
0
0
0
0
0
0
0
0
0
0
0
)

// normalDirections

12
(
2{1}
2(1 -1)
2(1 -1)
2{-1}
2{-1}
2{-1}
2{-1}
2{-1}
2(1 -1)
2(1 -1)
2(1 -1)
3{-1}
)

// edgeNormals

12
(
2(3 4)
2(5 6)
2(4 7)
2(11 12)
2(12 0)
2(0 13)
2(13 2)
2(13 14)
2(15 2)
2(8 9)
2(10 11)
3(0 1 2)
)

// featurePointNormals

6
(
5(11 12 0 13 14)
3(3 4 6)
3(3 4 7)
4(13 2 14 15)
5(12 0 15 2 1)
4(0 13 2 1)
)

// featurePointEdges

6
(
4(3 4 5 7)
2(0 1)
2(0 2)
3(6 7 8)
3(4 11 8)
3(5 11 6)
)

// regionEdges
1(11)


// ************************************************************************* //
