/*--------------------------------*- C++ -*----------------------------------*\
| =========                 |                                                 |
| \\      /  F ield         | OpenFOAM: The Open Source CFD Toolbox           |
|  \\    /   O peration     | Version:  2212                                  |
|   \\  /    A nd           | Website:  www.openfoam.com                      |
|    \\/     M anipulation  |                                                 |
\*---------------------------------------------------------------------------*/
FoamFile
{
    version     2.0;
    format      ascii;
    arch        "LSB;label=64;scalar=64";
    class       extendedFeatureEdgeMesh;
    location    "constant/extendedFeatureEdgeMesh";
    object      GeoShaft_ss.extendedFeatureEdgeMesh;
}
// * * * * * * * * * * * * * * * * * * * * * * * * * * * * * * * * * * * * * //

// points

1185
(
(10.2172 -1.21545 -83.4195)
(24.3726 -28.8404 -67.5901)
(-37.1872 -6.7286 -67.5576)
(-26.3568 38.8966 80.3316)
(-12.7551 35.649 68.5119)
(-10.2172 -1.21545 84.4995)
(46.8638 3.37742 80.3316)
(50.0306 0.00152489 77.0148)
(37.1751 -6.68507 68.6405)
(-8.28139 -7.04448 70.2287)
(-19.0765 -42.7553 78.9827)
(-20.507 -42.274 80.3316)
(4.78782 1.97684 215.54)
(4.47331 -2.4628 215.54)
(0.28232 5.27534 215.54)
(-3.80881 3.41981 215.54)
(3.21095 -2.73729 -85.4667)
(-3.86842 1.8846 -85.4756)
(27.4889 37.8983 -77.9027)
(25.9074 42.3598 -77.1385)
(23.5676 -44.1282 -74.7896)
(19.0765 -42.7553 -77.9027)
(23.731 -43.6164 -77.1386)
(-47.0061 4.75858 -77.8044)
(-50.1059 0.333596 -76.2783)
(-46.127 3.52365 -79.3979)
(-21.6345 -27.3489 70.8802)
(-24.5026 -28.8544 68.5463)
(-27.4889 37.8983 78.9827)
(49.5376 2.89122 77.0277)
(-6.11026 -1.89949 65.5275)
(-0.702324 -6.19833 65.5357)
(6.31429 3.44929e-08 65.5327)
(-0.702324 6.19833 65.5357)
(-4.83094 3.69846 65.5393)
(-1.06758 4.98308 -63.4175)
(-0.702324 6.19833 85.5443)
(6.31429 -3.44929e-08 85.5473)
(-0.702324 -6.19833 85.5443)
(-4.83094 -3.69846 85.5407)
(0.702324 6.19833 -64.4557)
(8.90431 4.8113 -78.1837)
(2.01837 9.89171 -68.3271)
(1.90453 10.4963 -69.1212)
(-0.201434 10.1675 -70.6698)
(7.65335 6.48701 -80.5481)
(8.15529 6.95309 -79.6223)
(12.8622 32.4089 -69.8057)
(12.8094 35.5254 -67.5606)
(14.4006 32.5312 -68.1811)
(13.9127 35.2649 -65.8175)
(-0.542631 -10.0683 -78.226)
(-8.69382 -5.27326 -70.6237)
(-9.57762 -3.1974 -68.3341)
(-8.61881 5.30576 -78.1837)
(8.92125 -4.86618 -70.6438)
(7.67852 -6.64235 -68.5591)
(1.79117 -9.86957 -80.5531)
(-9.4428 3.38379 -80.5531)
(1.94393 -10.5392 -79.6223)
(0.144412 -10.5249 -78.1329)
(8.31875 -7.21209 -69.1277)
(-10.0993 3.58621 -79.6222)
(-10.0012 -3.57807 -69.0864)
(-8.90431 4.8113 79.2637)
(-1.90453 10.4963 70.2012)
(-2.01837 9.89171 69.4071)
(0.201557 10.1675 71.7498)
(-8.15529 6.95309 80.7023)
(-7.65335 6.487 81.6282)
(-12.8622 32.4089 70.8857)
(-14.3939 32.5326 69.2683)
(8.6188 5.30576 79.2637)
(-8.92128 -4.86604 71.7238)
(-7.68262 -6.56094 69.5929)
(0.261935 -10.1432 79.2362)
(8.69374 -5.27334 71.7037)
(9.57762 -3.19739 69.4141)
(9.4428 3.3838 81.6331)
(-1.79117 -9.86957 81.6331)
(10.0993 3.58621 80.7022)
(10.0012 -3.57806 70.1664)
(-1.94393 -10.5392 80.7023)
(2.51759 -4.49273 -63.4775)
(-6.11026 1.89949 85.5525)
(4.74542 2.56457 -84.475)
(3.91767 -3.40883 -84.4637)
(-1.89195 -5.05124 -84.4746)
(-5.26641 0.880427 -84.4712)
(-1.00877 5.13883 -84.4653)
(0.702325 -6.19833 -64.4557)
(9.0553 5.41949 -78.1726)
(-0.761666 9.99389 -70.6304)
(-9.05531 5.41951 79.2526)
(0.761665 9.99389 71.7104)
(3.68751 9.37469 -65.4485)
(7.83329 6.4201 -65.4512)
(8.91967 3.95504 -84.203)
(2.05917 -9.89041 -75.6815)
(5.00967 -8.79663 -72.4478)
(21.6345 -27.3489 -69.8002)
(20.3143 -27.8923 -68.4382)
(21.672 -29.1815 -67.6722)
(23.584 -29.6812 -65.8175)
(-34.4928 -5.06868 -69.8114)
(-34.3126 -3.64657 -68.4382)
(-36.1079 -4.17775 -67.6722)
(-37.5509 -5.6835 -65.6987)
(-25.0166 43.327 77.0148)
(-3.68751 9.37469 66.5285)
(-7.83329 6.4201 66.5312)
(-8.91967 3.95504 85.283)
(-2.05918 -9.8904 76.7615)
(34.4927 -5.06868 70.8914)
(34.3118 -3.65256 69.524)
(-5.88411 -8.8544 73.3097)
(-20.3191 -27.8886 69.524)
(-21.6719 -29.1815 68.7523)
(-23.607 -29.6762 66.8926)
(-23.7391 -44.13 75.7114)
(-3.74967 3.3735 86.5119)
(-5.73242 7.35215 85.5461)
(-3.79814 -3.3412 215.54)
(-5.09762 -0.0480063 215.54)
(-1.12101 -4.98189 215.54)
(1.8743 -4.66165 215.54)
(3.94976 1.02774 -85.4615)
(-2.18663 -3.78736 -85.4816)
(1.13291 4.13095 -85.4714)
(8.14794 -4.37245 -84.4636)
(-3.61329 -9.59434 -83.4563)
(-6.57554 -6.64324 -84.4676)
(-9.11 -4.5566 -83.4738)
(5.73224 7.35192 -84.4663)
(-8.14794 -4.37245 85.5436)
(3.61329 -9.59434 84.5363)
(6.57554 -6.64324 85.5476)
(9.11 -4.5566 84.5538)
(26.4324 42.4742 -74.7896)
(25.9025 37.6572 -79.4778)
(19.6608 -41.2608 -79.4778)
(-36.1954 -12.0132 -57.5534)
(-36.298 -11.3667 -61.5151)
(-33.6579 -17.8909 -52.5947)
(-32.3995 -19.9276 -46.5266)
(-26.7184 -27.3916 -34.8065)
(-16.3118 -34.4821 -18.985)
(-11.2161 -36.332 -12.196)
(-0.832607 -38.1344 1.15881)
(-1.72091 -38.0367 -3.17494)
(-7.74067 -37.2445 -10.8105)
(8.50176 -37.0988 12.8684)
(15.8885 -34.6606 22.6247)
(25.3055 -28.5716 36.7864)
(31.5924 -21.2313 48.846)
(35.6759 -13.5412 56.5892)
(31.0802 -22.1483 44.3998)
(35.8973 -12.7556 60.799)
(37.4972 -5.58395 66.8957)
(26.9028 -27.0949 36.2775)
(15.8296 -34.7227 19.3344)
(6.87058 -37.4526 7.63085)
(-17.4319 -33.9143 -23.6353)
(-28.2645 -25.597 -40.9389)
(-50.0345 1.32581 -74.4657)
(-25.014 -43.3285 77.0148)
(9.27209 36.8901 -62.8183)
(7.24491 37.4336 -57.0802)
(-4.60821 37.8817 -45.2586)
(2.91051 37.9251 -54.6913)
(-21.8999 31.1899 -21.8847)
(-14.5368 35.2705 -32.3714)
(-31.0069 22.2417 -5.8386)
(-35.6429 13.3493 6.79274)
(-38.1125 2.10344 21.3695)
(-36.8914 9.58506 14.9559)
(-38.1075 0.521798 26.4725)
(-37.0267 -9.12431 35.4853)
(-34.3085 -16.5286 45.3113)
(-35.722 -13.1838 43.993)
(-33.739 -17.5622 50.0054)
(-26.3614 -27.4364 62.4189)
(-30.2327 -23.1554 55.1819)
(-2.62547 37.9681 -44.5661)
(-13.8815 35.5376 -30.0646)
(-24.6172 29.0843 -14.2809)
(-32.6091 19.7883 1.15882)
(-37.4092 -6.99071 35.9544)
(-31.4431 -21.5358 55.7505)
(-33.6935 -37.0805 63.829)
(-41.3844 -28.2391 52.6508)
(-39.0422 -31.2706 59.1498)
(-43.8727 -24.2819 51.0058)
(-47.1693 -17.1658 40.8389)
(-47.55 -15.4553 41.9292)
(-49.4101 -8.02705 34.6636)
(-49.8401 -4.74737 28.6815)
(-50.0473 1.30506 25.6671)
(-49.8594 4.63693 19.7427)
(-48.5027 12.6206 14.8629)
(-47.8933 14.5786 10.067)
(-45.8676 19.9264 7.33487)
(-41.9732 27.7578 -3.73947)
(-42.2089 26.9388 -0.13494)
(-36.4534 34.3261 -9.14961)
(-32.316 38.2377 -17.373)
(-28.7499 40.9775 -18.8522)
(-24.5788 43.6242 -26.4029)
(-20.2331 45.8136 -28.2206)
(-13.4598 48.283 -37.864)
(-12.0399 48.5693 -36.4786)
(-2.83273 49.9941 -48.092)
(8.94913 49.367 -59.6017)
(-2.26102 50.1091 -46.0022)
(9.3776 49.2243 -57.1415)
(18.8952 46.3339 -66.5914)
(22.3375 44.8074 -72.9656)
(-33.4756 -37.3185 66.9738)
(-13.8968 35.2824 66.8926)
(-26.3482 42.6237 75.7114)
(27.5004 -26.2789 -62.4956)
(28.7959 -24.9911 -57.0803)
(35.1106 -14.95 -45.2586)
(31.6114 -21.1596 -54.1986)
(38.0266 0.605452 -25.2698)
(37.8135 -5.04602 -32.3714)
(33.3742 18.3262 -2.10683)
(37.0288 9.57568 -14.0286)
(29.3823 24.193 6.79274)
(20.8779 31.9547 21.3694)
(26.7466 27.1564 14.9559)
(19.5057 32.7412 26.4725)
(10.6115 36.6282 35.4853)
(2.84009 37.9764 45.3112)
(6.44348 37.5281 43.993)
(1.66016 37.9999 50.0054)
(-10.58 36.5479 62.4189)
(-4.93679 37.7599 55.1818)
(34.194 -16.7103 -44.5661)
(37.7173 -5.74703 -30.0646)
(37.4963 6.77704 -14.2809)
(33.4417 18.3462 1.15882)
(12.6505 35.8927 35.9544)
(-2.7224 38.0374 55.5391)
(-15.2658 47.7197 63.829)
(-3.76356 49.9595 52.6508)
(-7.56008 49.4468 59.1498)
(0.907604 50.1359 51.0058)
(8.71865 49.4328 40.8388)
(10.3903 48.9071 41.9292)
(17.7535 46.804 34.6636)
(20.8087 45.5365 28.6815)
(26.1539 42.6897 25.6671)
(28.9454 40.861 19.7426)
(35.1811 35.6943 14.8629)
(39.7518 30.8503 5.66841)
(40.1906 29.7592 7.33482)
(44.4342 23.0846 -0.134944)
(46.4762 18.56 -7.72704)
(47.954 14.4065 -9.14958)
(49.2728 8.86762 -17.373)
(49.8625 4.40942 -18.8522)
(50.0691 -0.526203 -26.4029)
(49.7923 -5.38436 -28.2206)
(48.5442 -12.485 -37.864)
(48.0821 -13.8578 -36.4786)
(44.7743 -22.4231 -48.0077)
(39.9984 -30.0421 -56.5828)
(44.5263 -23.0964 -46.0021)
(37.9407 -32.7334 -57.1415)
(34.2715 -36.4869 -64.7972)
(30.6788 -39.5307 -66.5913)
(30.8197 -39.4568 -69.1726)
(-15.581 47.65 66.9738)
(45.2621 5.05164 79.1774)
(36.1079 -4.1777 68.7523)
(49.7922 -5.35459 69.0717)
(47.2554 -16.7289 58.0003)
(46.6022 -18.1762 59.1498)
(42.7711 -26.1559 50.7442)
(42.1045 -27.2073 46.7001)
(37.1597 -33.4518 41.9292)
(31.6567 -38.7769 34.6636)
(28.6221 -41.0962 28.1702)
(38.2524 -32.4625 40.5402)
(23.8934 -43.9948 25.6671)
(18.452 -46.5563 17.2107)
(13.3216 -48.3149 14.8629)
(8.11503 -49.4542 6.92332)
(5.67697 -49.6857 7.33482)
(-2.22526 -50.0234 -0.134939)
(-3.45507 -49.951 -4.14138)
(-11.5006 -48.7326 -9.14958)
(-12.7472 -48.4239 -13.1279)
(-21.1126 -45.3869 -18.8522)
(-23.8102 -44.129 -24.4874)
(-29.5591 -40.4292 -28.2206)
(-34.4648 -36.319 -37.098)
(-36.0423 -34.7115 -36.4786)
(-40.9141 -28.7758 -46.6413)
(-42.2653 -27.0127 -46.0021)
(-44.6897 -22.6848 -53.4604)
(-47.3183 -16.491 -57.1415)
(-48.6386 -11.9212 -64.366)
(-49.574 -6.80326 -66.5913)
(49.0566 -10.3315 66.9738)
(7.98317 6.80832 -76.4956)
(8.9714 5.08062 -78.1803)
(9.00396 4.43843 -78.1651)
(1.91737 10.4372 -69.0408)
(1.87765 10.2033 -68.835)
(1.82131 9.85979 -68.2013)
(2.02034 10.8589 -69.1603)
(0.192772 10.5549 -70.6144)
(-0.118239 10.2673 -70.6154)
(7.90938 6.69305 -79.9186)
(8.26807 6.99164 -79.6115)
(9.60476 26.6982 -70.0611)
(12.4824 31.654 -69.876)
(12.9971 33.0923 -69.4817)
(13.0127 34.6403 -68.4644)
(12.8007 35.2628 -67.8126)
(12.5434 35.6549 -67.2646)
(12.1633 35.9811 -66.6201)
(7.48207 20.2675 -68.8522)
(13.7863 31.0957 -68.4632)
(14.1475 31.9367 -68.2966)
(14.3937 33.0245 -67.8469)
(14.3972 33.9166 -67.2588)
(14.1433 34.8224 -66.377)
(13.5927 35.4682 -65.3385)
(-7.00475 -7.15824 -65.4578)
(-8.41409 -5.4273 -65.4558)
(1.9209 -10.6561 -79.6115)
(1.84166 -10.1962 -79.9186)
(-0.417513 -10.1201 -78.1684)
(-0.0857452 -10.3098 -78.1803)
(0.165765 -10.5519 -78.1726)
(8.37319 -7.152 -69.1623)
(8.12493 -6.91898 -69.065)
(7.84307 -6.67797 -68.7746)
(7.64999 -6.4788 -68.0936)
(8.99833 -5.33069 -70.6129)
(8.95759 -4.91491 -70.6021)
(21.1333 -26.5723 -69.8916)
(22.1602 -27.802 -69.4817)
(23.493 -28.5894 -68.4644)
(24.1381 -28.7171 -67.8126)
(24.6063 -28.6904 -67.2646)
(25.0789 -28.5242 -66.6201)
(13.8111 -16.6134 -68.8522)
(20.0365 -27.4872 -68.4632)
(20.5843 -28.2204 -68.2966)
(21.4033 -28.9776 -67.8469)
(22.174 -29.4266 -67.2588)
(23.0854 -29.6597 -66.377)
(23.92 -29.5057 -65.3385)
(-10.189 3.66456 -79.6115)
(-9.75111 3.50322 -79.9185)
(-8.88575 5.2291 -78.1803)
(-9.22107 5.13238 -78.1726)
(-8.35273 5.57314 -78.1651)
(-10.3804 -3.67539 -69.1623)
(-10.0545 -3.57689 -69.065)
(-9.78952 -3.47421 -68.8574)
(-9.54856 -3.39128 -68.4603)
(-9.31734 -5.10485 -70.6193)
(-8.88833 -5.20739 -70.6051)
(-8.25676 -5.66908 -70.6263)
(-26.3808 -5.03646 -70.1075)
(-33.6544 -5.01689 -69.876)
(-35.1573 -5.29028 -69.4817)
(-36.5057 -6.05082 -68.4644)
(-36.9388 -6.54566 -67.8126)
(-37.1497 -6.96449 -67.2646)
(-37.2441 -7.47864 -66.5943)
(-21.2932 -3.65409 -68.8522)
(-33.8229 -3.60856 -68.4632)
(-34.7318 -3.71631 -68.2966)
(-35.7969 -4.04698 -67.8469)
(-36.5712 -4.48993 -67.2588)
(-37.2287 -5.16273 -66.377)
(-37.5127 -5.96248 -65.3385)
(-7.98313 6.80836 77.5756)
(-8.9714 5.08066 79.2603)
(-9.00396 4.43842 79.2451)
(-2.02035 10.859 70.2403)
(-1.91737 10.4372 70.1208)
(-1.87765 10.2033 69.915)
(-1.82131 9.8598 69.2814)
(-0.192881 10.5551 71.6944)
(0.118223 10.2673 71.6954)
(-8.26805 6.99161 80.6915)
(-7.90937 6.69304 80.9986)
(-25.554 36.9047 80.6323)
(-26.1187 38.8244 80.1615)
(-26.1768 40.8081 79.2199)
(-25.5694 42.5005 77.8475)
(-24.6842 43.4691 76.6147)
(-9.6043 26.6974 71.1411)
(-12.4825 31.6541 70.956)
(-12.9971 33.0923 70.5617)
(-13.0127 34.6401 69.5446)
(-12.8007 35.2626 68.8928)
(-12.5436 35.6547 68.3449)
(-12.1678 35.9778 67.7072)
(-7.48177 20.267 69.9322)
(-13.7863 31.0957 69.5433)
(8.43351 5.4011 66.5376)
(7.36741 6.76175 66.54)
(10.189 3.66456 80.6915)
(9.75111 3.50322 80.9985)
(8.88576 5.22909 79.2603)
(9.2211 5.13237 79.2526)
(8.35274 5.57313 79.2451)
(10.3804 -3.6754 70.2423)
(10.0544 -3.57688 70.145)
(9.78953 -3.47422 69.9374)
(9.54857 -3.39128 69.5403)
(9.31736 -5.10484 71.6993)
(8.88832 -5.2074 71.6851)
(8.25675 -5.66909 71.7063)
(44.7374 3.67804 80.6323)
(46.6823 3.20728 80.1615)
(48.4292 2.2657 79.2199)
(49.5912 0.893396 77.8476)
(49.9875 -0.357461 76.6147)
(26.3805 -5.03646 71.1875)
(33.6545 -5.01689 70.956)
(35.1573 -5.29028 70.5617)
(36.5055 -6.05069 69.5446)
(36.9387 -6.54556 68.8928)
(37.1496 -6.96424 68.3449)
(37.2415 -7.45127 67.7072)
(21.2926 -3.65409 69.9322)
(33.8228 -3.60855 69.5433)
(0.417511 -10.1201 79.2484)
(0.0857271 -10.3098 79.2603)
(-0.16578 -10.5519 79.2526)
(-8.12493 -6.91898 70.145)
(-8.37321 -7.15203 70.2423)
(-7.64999 -6.4788 69.1736)
(-7.84308 -6.67798 69.8546)
(-8.99832 -5.33061 71.6929)
(-8.95758 -4.91494 71.6821)
(-1.92089 -10.6561 80.6915)
(-1.84165 -10.1962 80.9987)
(-13.811 -16.6132 69.9322)
(-20.5845 -28.2201 69.377)
(-20.0365 -27.4871 69.5433)
(-21.4032 -28.9775 68.9269)
(-22.1738 -29.4266 68.3389)
(-23.0854 -29.6597 67.4571)
(-23.9209 -29.5055 66.4165)
(-20.4993 -43.5374 78.1416)
(-22.2349 -44.073 76.9063)
(-18.8174 -42.2675 78.9633)
(-17.774 -41.0057 79.2359)
(-23.7812 -43.9568 75.5042)
(-19.1834 -40.5827 80.6323)
(5.00081 0.390046 215.54)
(4.80254 -1.41644 215.54)
(3.99721 3.00371 215.54)
(4.70005 1.72167 215.54)
(3.22684 3.83852 215.54)
(1.98499 4.59679 215.54)
(0.273711 5.00717 215.54)
(-1.00013 4.89895 215.54)
(-4.13452 -2.82425 215.54)
(-4.81609 -1.36964 215.54)
(-3.16223 -3.87303 215.54)
(-2.21445 -4.49921 215.54)
(-1.00013 -4.89895 215.54)
(-0.0243625 -5.007 215.54)
(1.39109 -4.80259 215.54)
(3.70547 -3.37878 215.54)
(2.3053 -4.4448 215.54)
(4.42728 -2.32362 215.54)
(-3.74256 3.31561 215.54)
(-2.7892 4.16738 215.54)
(-1.77303 4.67508 215.54)
(-4.5999 1.95983 215.54)
(-4.22595 2.67233 215.54)
(-4.85471 1.19658 215.54)
(-4.98379 0.402334 215.54)
(-4.98379 -0.402332 215.54)
(27.4549 39.5217 -77.0616)
(26.9083 41.643 -75.5277)
(27.1961 37.4301 -77.8833)
(26.625 35.8956 -78.1559)
(25.862 42.7887 -74.0752)
(25.5694 42.5005 -76.7675)
(24.7089 43.4558 -75.5668)
(26.1768 40.8081 -78.1399)
(26.1187 38.8243 -79.0815)
(25.5539 36.9047 -79.5523)
(20.4993 -43.5374 -77.0616)
(22.6098 -44.1248 -75.5277)
(18.8174 -42.2675 -77.8833)
(17.774 -41.0057 -78.1559)
(24.1251 -43.7915 -74.0752)
(24.0219 -43.394 -76.7676)
(25.2794 -43.1264 -75.5668)
(22.2524 -43.0738 -78.1399)
(20.5635 -42.0316 -79.0815)
(19.1834 -40.5827 -79.5523)
(-36.8196 -9.53511 -60.7654)
(-36.8375 -9.32981 -64.2107)
(-36.1791 -11.6576 -61.1704)
(-35.2465 -14.2848 -54.4914)
(-35.0331 -14.7527 -57.0238)
(-33.3857 -18.2087 -52.2161)
(-33.3686 -18.1993 -49.0267)
(-29.9339 -23.415 -41.1707)
(-27.7313 -26.0039 -36.8995)
(-26.7935 -26.9589 -38.4071)
(-28.9182 -24.6591 -42.344)
(-25.1933 -28.4609 -32.463)
(-22.5968 -30.5676 -28.2401)
(-20.0591 -32.2965 -24.4003)
(-17.6164 -33.6828 -24.0547)
(-20.9047 -31.7601 -28.8517)
(-17.2248 -33.8899 -20.3149)
(-14.0012 -35.3556 -19.0542)
(-14.2152 -35.2506 -16.1866)
(-10.6108 -36.5037 -11.3703)
(-6.40655 -37.4726 -5.94987)
(-3.6944 -37.8306 -5.69816)
(-6.87968 -37.3822 -9.7404)
(-2.88263 -37.9019 -1.49147)
(3.50575 -37.8465 6.55056)
(6.70685 -37.4198 10.6026)
(7.97982 -37.1612 9.04067)
(4.11633 -37.7998 4.12241)
(10.0943 -36.6428 14.9644)
(13.1794 -35.6521 19.0398)
(16.0147 -34.478 22.8973)
(19.0765 -32.8839 27.233)
(19.9551 -32.3522 25.338)
(16.9409 -34.0327 21.0053)
(21.1007 -31.6049 30.2377)
(22.9911 -30.2619 33.1558)
(25.8111 -27.8977 37.7783)
(27.8678 -25.8422 41.4346)
(30.1817 -23.1053 45.9265)
(34.1613 -16.6684 52.2804)
(32.3635 -19.9681 47.5473)
(32.327 -20.0259 50.6507)
(34.5029 -15.9407 56.4674)
(35.5855 -13.3389 60.0111)
(36.7033 -9.86295 64.598)
(37.5129 -5.96331 66.4166)
(36.7304 -9.84407 61.4479)
(35.5532 -13.4586 56.6662)
(29.6528 -23.7781 41.6766)
(27.7902 -25.9427 38.0855)
(25.2215 -28.433 33.5949)
(22.9027 -30.3422 29.8163)
(14.3206 -35.2161 17.386)
(11.1471 -36.3449 13.1555)
(0.258905 -38.0108 2.45909)
(-0.159432 -38.016 -1.25437)
(-9.84481 -36.7196 -13.5623)
(-24.4095 -29.1443 -34.3432)
(-31.0191 -21.9787 -46.622)
(-31.735 -20.9148 -45.0441)
(-49.9851 1.05852 -74.131)
(-49.6467 2.20234 -75.2481)
(-49.5912 0.893405 -76.7676)
(-49.9864 -0.355846 -75.5454)
(-48.7697 3.36421 -76.41)
(-48.7609 1.94535 -77.8196)
(-47.5077 2.84236 -78.7166)
(-47.5012 4.25033 -77.2961)
(-46.0135 4.83747 -77.8833)
(-45.8646 3.46252 -79.3367)
(-44.399 5.1101 -78.1559)
(-44.3445 3.69727 -79.5715)
(-21.1333 -26.5724 70.9716)
(-24.0219 -43.394 77.8475)
(-25.3033 -43.1117 76.6147)
(-22.2524 -43.0738 79.2199)
(-20.5636 -42.0317 80.1615)
(-25.0738 -28.5265 67.7072)
(-24.606 -28.6904 68.3449)
(-24.138 -28.7171 68.8928)
(-23.4928 -28.5894 69.5446)
(-22.1602 -27.802 70.5617)
(8.72396 37.0118 -62.1075)
(11.8215 36.1205 -62.973)
(9.3345 36.8461 -59.7113)
(5.81853 37.5645 -55.2044)
(2.89554 37.9023 -51.5075)
(-0.156677 38.0157 -50.8568)
(3.62487 37.8578 -55.6173)
(-3.52283 37.8528 -46.6241)
(-0.487158 38.0071 -47.2533)
(-4.41814 37.7552 -42.3024)
(-7.84566 37.1957 -41.1217)
(-14.6046 35.0992 -32.2276)
(-11.3415 36.2767 -36.5834)
(-12.0512 36.0485 -32.463)
(-15.1739 34.8532 -28.2401)
(-17.5471 33.7231 -28.1545)
(-17.8457 33.5603 -24.5255)
(-20.3457 32.1079 -24.0849)
(-25.659 28.051 -15.6796)
(-22.9988 30.2604 -20.0217)
(-23.4203 29.936 -16.1865)
(-26.3077 27.4411 -11.3704)
(-28.0209 25.6776 -11.4808)
(-31.9581 20.5889 -3.37973)
(-30.0615 23.2643 -7.50009)
(-31.3827 21.4473 -1.49144)
(-33.0477 18.7812 2.459)
(-33.6624 17.6662 0.869479)
(-34.529 15.8872 6.55058)
(-35.465 13.6893 6.36399)
(-37.3896 6.87385 15.2648)
(-36.6028 10.2365 10.9284)
(-36.7807 9.57956 14.9644)
(-37.4653 6.41229 19.0399)
(-37.8388 3.66033 19.3333)
(-37.8519 3.45006 22.7956)
(-38.0143 0.317085 23.5533)
(-37.9004 -2.97985 27.6918)
(-37.5426 -5.9609 31.4649)
(-36.8315 -9.42012 35.9016)
(-35.9812 -12.2689 39.6385)
(-34.676 -15.5841 44.1135)
(-35.1006 -14.5854 45.9265)
(-33.5064 -17.9831 50.6507)
(-33.0705 -18.7381 48.55)
(-29.432 -24.0608 56.6665)
(-31.5155 -21.251 52.2814)
(-30.9029 -22.1261 56.8132)
(-29.3446 -24.1485 60.0111)
(-26.8903 -26.8875 61.448)
(-26.8932 -26.8545 64.598)
(-8.65436 37.018 -36.8995)
(-20.7372 31.8621 -20.3148)
(-29.2489 24.2846 -5.94994)
(-35.7599 12.9016 10.6026)
(-38.0166 -0.0788954 27.2331)
(-37.921 -2.47129 30.2377)
(-37.7042 -4.86526 33.2621)
(-37.0657 -8.40416 37.7782)
(-36.2551 -11.4448 41.7367)
(-27.6314 -41.6973 71.2189)
(-27.3157 -41.8835 74.3177)
(-31.6388 -38.7419 66.4632)
(-30.6474 -39.5386 70.4397)
(-34.2322 -36.4721 65.9368)
(-34.3535 -36.3257 62.9888)
(-36.8248 -33.8572 59.66)
(-36.8995 -33.7388 62.2886)
(-40.0087 -30.0279 54.9038)
(-39.2121 -31.0647 58.9141)
(-42.1265 -26.9853 54.1261)
(-42.8948 -25.7458 49.9698)
(-44.6676 -22.5229 49.2154)
(-45.1622 -21.5046 45.3793)
(-46.2074 -19.1156 45.6496)
(-46.8634 -17.4258 41.1914)
(-47.4644 -15.7402 42.2102)
(-48.7417 -11.2256 37.7269)
(-48.7206 -11.217 34.9624)
(-47.8606 -14.5323 38.2344)
(-49.4424 -7.51146 31.3501)
(-49.6133 -6.39047 33.0402)
(-50.0099 -1.26775 28.1266)
(-49.9719 2.16222 22.093)
(-49.9441 -2.5819 26.6169)
(-49.8951 3.48374 23.5945)
(-49.5227 7.03646 17.4188)
(-49.318 8.31814 18.9505)
(-48.5923 11.8652 12.7227)
(-48.5539 11.9201 15.4149)
(-47.5471 15.5021 11.8741)
(-47.1946 16.5728 8.03333)
(-45.7794 20.1368 7.14135)
(-45.3413 21.1227 3.34184)
(-43.5833 24.5399 2.4371)
(-43.0449 25.4785 -1.36043)
(-40.9626 28.7054 -2.26264)
(-40.3249 29.5958 -6.07298)
(-37.9414 32.5893 -6.96692)
(-37.2211 33.4152 -10.7728)
(-34.5238 36.1855 -11.7009)
(-33.7643 36.9046 -15.4633)
(-30.7671 39.4297 -16.4372)
(-29.9826 40.0378 -20.1529)
(-26.7366 42.2715 -21.1518)
(-25.9053 42.7891 -24.8501)
(-22.4351 44.7081 -25.873)
(-21.5643 45.1329 -29.5614)
(-17.9415 46.6914 -30.5686)
(-17.0199 47.035 -34.266)
(-13.23 48.2335 -35.2984)
(-11.0845 48.8012 -40.1801)
(-9.61868 49.0636 -38.8378)
(-5.43486 49.7168 -45.6403)
(3.50209 49.8834 -54.1906)
(-0.498282 50.0144 -50.3642)
(7.08746 49.5164 -57.6256)
(-5.92935 49.6682 -42.4028)
(-1.46045 49.9982 -46.6823)
(2.53942 49.9382 -50.5056)
(6.02848 49.6577 -53.8512)
(10.6709 48.8531 -61.1103)
(14.3629 47.9154 -64.7441)
(10.3049 48.9464 -57.9762)
(13.103 48.2755 -60.7256)
(16.6368 47.1528 -64.2861)
(18.5299 46.4417 -68.9477)
(19.9776 45.8578 -67.6926)
(21.1904 45.3118 -71.7245)
(23.5298 44.1194 -71.4648)
(-14.1471 31.9368 69.377)
(-14.3937 33.0245 68.9269)
(-14.3972 33.9164 68.3389)
(-14.1433 34.8224 67.4571)
(-13.5921 35.4688 66.4165)
(-27.4549 39.5216 78.1416)
(-27.0509 41.2925 76.9063)
(-27.1961 37.4301 78.9633)
(-26.625 35.8956 79.2359)
(-26.1771 42.5736 75.5042)
(27.6911 -26.0611 -62.1075)
(25.3705 -28.2979 -62.973)
(27.2425 -26.5069 -59.7112)
(29.6225 -23.8212 -55.2044)
(31.3765 -21.4587 -51.5075)
(33.001 -18.8721 -50.8567)
(30.9733 -22.0681 -55.6173)
(34.5429 -15.8755 -46.6241)
(33.1587 -18.5817 -47.2533)
(34.9061 -15.0514 -42.3024)
(36.1353 -11.8033 -41.1216)
(37.6991 -4.9016 -32.2276)
(37.0872 -8.31632 -36.5835)
(37.2445 -7.5877 -32.4631)
(37.7707 -4.28562 -28.2401)
(37.9786 -1.66528 -28.1545)
(37.9869 -1.32532 -24.5255)
(37.9791 1.56591 -24.0849)
(37.1223 8.19582 -15.6796)
(37.7057 4.7874 -20.0216)
(37.6355 5.31467 -16.1864)
(36.9186 9.06257 -11.3704)
(36.2479 11.4279 -11.4809)
(33.8096 17.382 -3.37974)
(35.1783 14.4019 -7.50006)
(34.2653 16.4545 -1.49147)
(32.7889 19.2295 2.45899)
(32.1306 20.3194 0.869481)
(31.0232 21.9594 6.55058)
(29.5878 23.8689 6.36394)
(24.6478 28.9434 15.2648)
(27.1665 26.5808 10.9284)
(26.6864 27.0633 14.9645)
(24.2859 29.2397 19.0398)
(22.0894 30.9391 19.3332)
(21.9138 31.0556 22.7956)
(19.2817 32.7628 23.5533)
(16.3696 34.3126 27.6917)
(13.609 35.4933 31.4649)
(10.2576 36.6071 35.9016)
(7.3655 37.2951 39.6385)
(3.8418 37.8223 44.1134)
(4.91892 37.6908 45.9265)
(1.17943 38.0089 50.6507)
(0.30756 38.0089 48.5499)
(-6.12136 37.5193 56.6665)
(-2.64622 37.9187 52.2814)
(-3.4464 37.8508 56.4674)
(-6.24092 37.4874 60.0111)
(-9.84009 36.7314 61.4481)
(-9.81007 36.7174 64.598)
(36.3857 -11.0141 -36.8995)
(37.9619 2.02792 -20.3148)
(35.6556 13.188 -5.94997)
(29.0531 24.5182 10.6026)
(18.94 32.9628 27.2331)
(16.8203 34.0762 30.2377)
(14.6386 35.0854 33.2621)
(11.2546 36.3019 37.7782)
(8.21604 37.1203 41.7368)
(-22.2953 44.7781 71.219)
(-22.6143 44.5979 74.3177)
(-17.7321 46.7709 66.4633)
(-18.9177 46.3107 70.4397)
(-14.4697 47.882 65.9368)
(-14.2822 47.9138 62.9888)
(-10.9089 48.8198 59.66)
(-10.7689 48.8253 62.2887)
(-6.00048 49.6625 54.9037)
(-7.29679 49.491 58.9141)
(-2.30673 49.9752 54.1261)
(-0.849091 50.0208 49.9698)
(2.82832 49.9447 49.2155)
(3.95753 49.8639 45.3793)
(6.54923 49.5745 45.6495)
(8.34055 49.2978 41.1914)
(10.1007 48.9755 42.2103)
(14.6493 47.8244 37.7269)
(14.646 47.8018 34.9625)
(11.345 48.7147 38.2343)
(18.2161 46.5741 31.3501)
(19.2723 46.1616 33.0402)
(23.9071 43.9437 28.1265)
(26.8585 42.1957 22.0929)
(22.736 44.5438 26.617)
(27.9645 41.4686 23.5945)
(30.855 39.3697 17.4188)
(31.8626 38.5517 18.9507)
(34.5717 36.1496 12.7228)
(34.6001 36.0888 15.4148)
(37.1987 33.426 11.8741)
(37.9498 32.5853 8.03332)
(40.3287 29.5777 7.14131)
(40.9634 28.7053 3.34186)
(43.0438 25.4742 2.43704)
(43.5875 24.5387 -1.36045)
(45.3409 21.122 -2.2626)
(45.7932 20.1244 -6.07304)
(47.1939 16.5635 -6.96697)
(47.549 15.5268 -10.7729)
(48.5995 11.8058 -11.7008)
(48.8425 10.7885 -15.4632)
(49.5307 6.9302 -16.4372)
(49.6651 5.94676 -20.153)
(49.9765 2.01875 -21.1519)
(50.0091 1.04006 -24.8501)
(49.9359 -2.9247 -25.873)
(49.8684 -3.89114 -29.5613)
(49.4067 -7.80788 -30.5686)
(49.2434 -8.77782 -34.266)
(48.3865 -12.6592 -35.2984)
(47.8053 -14.8011 -40.1801)
(47.2997 -16.2018 -38.8378)
(45.7734 -20.1518 -45.6404)
(41.4492 -27.9746 -54.1905)
(43.5629 -24.5756 -50.3641)
(39.3387 -30.8961 -57.6256)
(45.9786 -19.6991 -42.4028)
(44.03 -23.7344 -46.6823)
(41.978 -27.1683 -50.5056)
(39.9905 -30.0497 -53.8512)
(36.5596 -34.1209 -61.6662)
(34.3145 -36.3963 -64.7441)
(37.2364 -33.3975 -57.9762)
(35.2563 -35.4853 -60.7256)
(32.5171 -37.9843 -64.2861)
(31.6369 -38.7248 -68.1359)
(29.7251 -40.2301 -67.6927)
(28.6459 -41.0073 -71.7245)
(26.4437 -42.4371 -71.4648)
(49.9862 1.04207 75.1995)
(49.6467 2.20235 76.3281)
(48.7697 3.3642 77.49)
(47.5011 4.25036 78.3761)
(46.0134 4.83747 78.9633)
(44.399 5.1101 79.2359)
(37.2287 -5.16271 67.4571)
(36.5711 -4.48982 68.3389)
(34.7316 -3.71661 69.377)
(35.7969 -4.04696 68.9269)
(49.9266 -3.08054 71.2192)
(49.9301 -2.71439 74.3177)
(49.3708 -8.0291 66.4632)
(49.5651 -6.77223 70.4397)
(48.7018 -11.4099 65.9368)
(48.6357 -11.5882 62.9888)
(47.7336 -14.9626 59.66)
(47.6684 -15.0865 62.2887)
(46.0093 -19.6344 54.9039)
(46.5089 -18.4263 58.9141)
(44.4332 -22.99 54.126)
(43.7439 -24.275 49.9698)
(41.8392 -27.4218 49.2154)
(41.2147 -28.3444 45.3921)
(39.6582 -30.459 45.6495)
(39.0306 -31.242 41.9279)
(37.3636 -33.2353 42.2102)
(34.0925 -36.5988 37.7269)
(34.0742 -36.5851 34.9618)
(36.5159 -34.1822 38.2347)
(31.199 -39.0842 31.3219)
(30.3409 -39.7711 33.0402)
(26.1029 -42.676 28.1265)
(25.414 -43.0782 24.6036)
(28.3151 -41.2155 27.898)
(21.9305 -44.9523 23.5944)
(20.9298 -45.4308 19.7707)
(17.4553 -46.8697 18.9505)
(16.831 -47.1044 15.5419)
(13.9538 -48.0089 15.4149)
(11.5175 -48.6748 10.2578)
(10.3483 -48.9281 11.874)
(6.81985 -49.5528 5.68791)
(5.45068 -49.7145 7.14129)
(5.06317 -49.7821 4.00199)
(0.539402 -50.0142 2.43705)
(-0.622015 -50.0151 -1.43082)
(-4.37832 -49.8273 -2.26266)
(-5.51433 -49.7151 -6.11289)
(-9.25252 -49.1528 -6.96695)
(-10.5529 -48.893 -10.9846)
(-14.0756 -47.9913 -11.7008)
(-15.0792 -47.6927 -15.4643)
(-18.7636 -46.36 -16.4372)
(-18.6574 -46.3925 -19.0848)
(-21.9183 -44.9619 -22.5001)
(-23.24 -44.2903 -21.1519)
(-26.2351 -42.5878 -27.2048)
(-27.5008 -41.7834 -25.873)
(-27.7711 -41.6276 -28.9291)
(-31.4652 -38.8835 -30.5687)
(-32.2826 -38.2056 -34.3357)
(-35.1564 -35.5743 -35.2984)
(-35.8222 -34.9101 -38.9592)
(-37.681 -32.8618 -38.8378)
(-39.0957 -31.1807 -43.7039)
(-44.9539 -21.9034 -54.1957)
(-43.0734 -25.4237 -50.3755)
(-46.4173 -18.6419 -57.608)
(-40.0493 -29.9691 -42.4028)
(-41.0464 -28.549 -46.8228)
(-42.5695 -26.2639 -46.6823)
(-44.5175 -22.7698 -50.5056)
(-46.019 -19.608 -53.8511)
(-47.9735 -14.1553 -62.136)
(-47.5413 -15.5489 -57.9762)
(-48.3593 -12.7902 -60.7256)
(-49.1539 -9.16853 -64.2861)
(-49.7028 -5.62768 -67.6927)
(-49.8349 -4.32071 -71.7136)
(-49.1768 -9.13792 -67.0711)
(-49.9735 -1.68228 -71.4648)
(7.27151 7.49749 -75.5002)
(5.24759 8.56348 -72.2452)
(7.55429 6.69251 -75.675)
(4.49512 9.6058 -71.971)
(4.49244 9.5153 -75.1092)
(6.46581 7.75264 -78.494)
(-10.0564 0.198689 -72.2866)
(-9.57229 3.19503 -75.6721)
(3.48443 -9.4745 -78.4906)
(-9.94726 1.72092 -78.4916)
(-10.0182 -1.29106 -75.2873)
(5.99397 -8.64833 -75.1096)
(-10.4871 -0.726819 -75.2443)
(-10.191 2.434 -75.3992)
(-10.5558 -1.03492 -71.8318)
(-7.27148 7.49749 76.5801)
(-5.24758 8.56348 73.3252)
(-7.55428 6.69252 76.755)
(-4.42558 9.65558 72.974)
(-4.49243 9.51529 76.1892)
(-6.46582 7.75263 79.5741)
(10.0564 0.198686 73.3666)
(9.57229 3.19503 76.7521)
(10.0182 -1.29106 76.3674)
(9.94726 1.72092 79.5716)
(-3.48443 -9.47451 79.5706)
(10.4871 -0.726824 76.3243)
(10.1909 2.43401 76.4792)
(10.5555 -1.03598 72.9105)
(-5.99397 -8.64834 76.1897)
(-5.08132 -0.033526 64.5206)
(-4.17978 -2.80955 64.5275)
(-1.97784 -4.65982 64.5243)
(0.642087 -5.00312 64.5239)
(3.87799 -4.68807 65.5393)
(3.22159 -3.93911 64.5871)
(4.7778 -1.61172 64.522)
(4.93865 1.2079 64.4864)
(3.87799 4.68807 65.5393)
(0.965212 4.92376 64.5227)
(-1.5248 4.8375 64.5234)
(5.03883 -1.17471 -63.4336)
(-2.43685 -4.54047 -63.3428)
(-4.1043 2.99 -63.4601)
(-5.09933 -0.740403 -63.4624)
(3.51897 3.84036 -63.4176)
(-5.02428 0.808953 86.5887)
(-1.38254 4.8988 86.5881)
(1.83911 4.74235 86.5479)
(3.87799 4.68807 85.5407)
(4.23555 2.7992 86.5048)
(5.04899 -0.0234268 86.5784)
(4.58793 -2.03015 86.5525)
(3.87799 -4.68807 85.5407)
(3.25566 -3.89036 86.5087)
(0.968059 -4.92492 86.5698)
(-1.08319 -4.92352 86.5553)
(-3.47041 -3.70682 86.5041)
(-4.73246 -1.6646 86.5528)
(6.11026 -1.89949 -64.4475)
(-3.878 -4.68807 -64.4593)
(-3.878 4.68807 -64.4593)
(-6.31429 3.44931e-08 -64.4527)
(4.83094 3.69846 -64.4593)
(7.24433 7.78429 -75.4087)
(1.079 9.95937 -68.8253)
(8.66295 5.05825 -78.8918)
(0.0689472 -10.0344 -78.8988)
(-8.7244 4.95549 -78.904)
(-7.24426 7.78432 76.4886)
(-1.07899 9.95938 69.9053)
(-8.66296 5.05825 79.9718)
(8.72441 4.95547 79.984)
(-0.0689765 -10.0344 79.9788)
(-5.88726 -1.23798 65.5399)
(-5.96859 0.886375 65.5398)
(-4.98193 -0.441387 64.5212)
(-4.84676 -1.23422 64.523)
(-5.26461 -2.91287 65.5399)
(-4.57224 -2.03107 64.5294)
(-4.20688 -2.7049 64.5266)
(-4.17443 -4.33333 65.5399)
(-3.71857 -3.34464 64.5284)
(-3.08545 -3.93984 64.5368)
(-2.71445 -5.36953 65.5399)
(-2.4677 -4.35027 64.532)
(-1.73744 -4.68995 64.5339)
(-1.01817 -5.92911 65.5399)
(-0.961931 -4.90806 64.5357)
(-0.157389 -4.99898 64.5293)
(1.10513 -5.93233 65.5398)
(0.641458 -4.96013 64.5217)
(1.45068 -4.78743 64.5263)
(3.10729 -5.15232 65.5399)
(2.17827 -4.50217 64.5252)
(2.87207 -4.09458 64.527)
(4.48617 -4.0097 65.5399)
(3.51996 -3.55534 64.533)
(4.4055 -2.36827 64.5269)
(5.46696 -2.51232 65.5399)
(4.73185 -1.61943 64.5237)
(5.96272 -0.797068 65.5399)
(4.93026 -0.839953 64.5219)
(5.00233 0.000496412 64.5232)
(5.94757 0.869437 65.54)
(5.46697 2.51232 65.5399)
(4.73181 1.61999 64.5239)
(4.41084 2.35772 64.5257)
(4.48617 4.0097 65.5399)
(3.97252 3.03902 64.5281)
(3.43736 3.63303 64.5293)
(3.10729 5.15232 65.5399)
(2.80989 4.13749 64.5311)
(2.10944 4.53482 64.533)
(1.10513 5.93233 65.5398)
(1.35411 4.81464 64.5348)
(0.559129 4.97011 64.5279)
(-1.01817 5.92911 65.5399)
(-0.264243 4.99542 64.5239)
(-1.0382 4.8925 64.5226)
(-2.71445 5.36953 65.5399)
(-1.8091 4.66278 64.5243)
(-2.53336 4.31236 64.5261)
(-4.17443 4.33333 65.5399)
(-3.1922 3.85022 64.5279)
(-3.76852 3.28826 64.5298)
(-5.26461 2.91287 65.5399)
(-4.24732 2.64095 64.5316)