/*--------------------------------*- C++ -*----------------------------------*\
| =========                 |                                                 |
| \\      /  F ield         | OpenFOAM: The Open Source CFD Toolbox           |
|  \\    /   O peration     | Version:  2206                                  |
|   \\  /    A nd           | Website:  www.openfoam.com                      |
|    \\/     M anipulation  |                                                 |
\*---------------------------------------------------------------------------*/
FoamFile
{
    version     2.0;
    format      ascii;
    arch        "LSB;label=64;scalar=64";
    class       extendedFeatureEdgeMesh;
    location    "constant/extendedFeatureEdgeMesh";
    object      GeoTop.extendedFeatureEdgeMesh;
}
// * * * * * * * * * * * * * * * * * * * * * * * * * * * * * * * * * * * * * //

// points
8((-150 -150 118) (-150 150 118) (150 -150 118) (150 150 118) (-150 -150 180) (150 -150 180) (150 150 180) (-150 150 180))
// edges

12
(
(2 0)
(0 1)
(3 2)
(1 3)
(4 0)
(2 5)
(5 4)
(3 6)
(6 5)
(1 7)
(7 6)
(4 7)
)

// concaveStart mixedStart nonFeatureStart
8 8 8
// internalStart flatStart openStart multipleStart
12 12 12 12
// normals

12
(
(0 0 -1)
(0 -1 0)
(-1 0 0)
(0 0 -1)
(1 0 0)
(0 1 -0)
(0 -1 0)
(0 0 1)
(1 -0 0)
(-0 0 1)
(0 1 0)
(-1 0 0)
)

// normal volume types

12
(
0
0
0
0
0
0
0
0
0
0
0
0
)

// normalDirections

12
(
2(1 -1)
2(1 -1)
2(1 -1)
2(1 -1)
2(1 -1)
2(1 -1)
2(1 -1)
2(1 -1)
2(1 -1)
2(1 -1)
2(1 -1)
2(1 -1)
)

// edgeNormals

12
(
2(0 1)
2(0 2)
2(3 4)
2(3 5)
2(1 2)
2(6 4)
2(6 7)
2(8 5)
2(8 9)
2(10 11)
2(10 9)
2(11 7)
)

// featurePointNormals

8
(
3(0 1 2)
3(0 2 5)
3(0 1 4)
3(3 4 5)
3(1 2 7)
3(6 4 7)
3(8 5 9)
3(10 11 9)
)

// featurePointEdges

8
(
3(0 4 1)
3(3 9 1)
3(2 5 0)
3(2 7 3)
3(6 11 4)
3(5 8 6)
3(7 10 8)
3(9 11 10)
)

// regionEdges
0()


// ************************************************************************* //
