/*--------------------------------*- C++ -*----------------------------------*\
| =========                 |                                                 |
| \\      /  F ield         | OpenFOAM: The Open Source CFD Toolbox           |
|  \\    /   O peration     | Version:  2212                                  |
|   \\  /    A nd           | Website:  www.openfoam.com                      |
|    \\/     M anipulation  |                                                 |
\*---------------------------------------------------------------------------*/
FoamFile
{
    version     2.0;
    format      ascii;
    arch        "LSB;label=64;scalar=64";
    class       extendedFeatureEdgeMesh;
    location    "constant/extendedFeatureEdgeMesh";
    object      GeoTank.extendedFeatureEdgeMesh;
}
// * * * * * * * * * * * * * * * * * * * * * * * * * * * * * * * * * * * * * //

// points

104
(
(1.72233 -16.1117 157.793)
(0 -16.2035 157.793)
(3.42514 -15.8373 157.793)
(5.08914 -15.3836 157.793)
(6.69548 -14.7555 157.793)
(8.22596 -13.9602 157.793)
(9.66323 -13.0067 157.793)
(10.991 -11.9059 157.793)
(12.1943 -10.6702 157.793)
(13.2594 -9.31356 157.793)
(14.1742 -7.85142 157.793)
(14.9285 -6.30031 157.793)
(15.5136 -4.67782 157.793)
(15.9229 -3.00232 157.793)
(16.1518 -1.29281 157.793)
(16.1977 0.431345 157.793)
(16.0601 2.15062 157.793)
(15.7406 3.84552 157.793)
(15.2426 5.49685 157.793)
(14.572 7.08591 157.793)
(13.7363 8.59467 157.793)
(12.7449 10.0061 157.793)
(11.6091 11.3041 157.793)
(10.3418 12.474 157.793)
(8.95729 13.5026 157.793)
(7.47131 14.3782 157.793)
(5.90067 15.0909 157.793)
(4.26318 15.6326 157.793)
(2.57738 15.9972 157.793)
(0.862385 16.1805 157.793)
(-0.862385 16.1805 157.793)
(-2.57738 15.9972 157.793)
(-4.26318 15.6326 157.793)
(-5.90067 15.0909 157.793)
(-7.47131 14.3782 157.793)
(-8.95729 13.5026 157.793)
(-10.3418 12.474 157.793)
(-11.6091 11.3041 157.793)
(-12.7449 10.0061 157.793)
(-13.7363 8.59467 157.793)
(-14.572 7.08591 157.793)
(-15.2426 5.49685 157.793)
(-15.7406 3.84552 157.793)
(-16.0601 2.15062 157.793)
(-16.1977 0.431345 157.793)
(-16.1518 -1.29281 157.793)
(-15.9229 -3.00232 157.793)
(-15.5136 -4.67782 157.793)
(-14.9285 -6.30031 157.793)
(-14.1742 -7.85142 157.793)
(-13.2594 -9.31356 157.793)
(-12.1943 -10.6702 157.793)
(-10.991 -11.9059 157.793)
(-9.66323 -13.0067 157.793)
(-8.22596 -13.9602 157.793)
(-6.69548 -14.7555 157.793)
(-5.08914 -15.3836 157.793)
(-3.42514 -15.8373 157.793)
(-1.72233 -16.1117 157.793)
(0 -9.35383 -175.459)
(-1.3018 -9.2628 -175.459)
(-0.65249 9.33105 -175.459)
(0.65249 9.33105 -175.459)
(1.3018 -9.2628 -175.459)
(1.94477 9.14943 -175.459)
(2.57827 -8.99148 -175.459)
(3.1992 8.78973 -175.459)
(3.80455 -8.54515 -175.459)
(4.39136 8.25894 -175.459)
(4.95678 -7.9325 -175.459)
(5.49805 7.56741 -175.459)
(6.01253 -7.16545 -175.459)
(6.49772 6.72858 -175.459)
(6.95125 -6.25894 -175.459)
(7.37092 5.75879 -175.459)
(7.75468 -5.2306 -175.459)
(8.10066 4.67692 -175.459)
(8.40717 -4.10045 -175.459)
(8.67272 3.50401 -175.459)
(8.89602 -2.89049 -175.459)
(9.07598 2.2629 -175.459)
(9.21173 -1.62428 -175.459)
(9.30259 0.977742 -175.459)
(9.34813 -0.326444 -175.459)
(-1.94477 9.14943 -175.459)
(-2.57827 -8.99148 -175.459)
(-3.1992 8.78973 -175.459)
(-3.80455 -8.54515 -175.459)
(-4.39136 8.25894 -175.459)
(-4.95678 -7.9325 -175.459)
(-5.49805 7.56741 -175.459)
(-6.01253 -7.16545 -175.459)
(-6.49772 6.72858 -175.459)
(-6.95125 -6.25894 -175.459)
(-7.37092 5.75879 -175.459)
(-7.75468 -5.2306 -175.459)
(-8.10066 4.67692 -175.459)
(-8.40717 -4.10045 -175.459)
(-8.67272 3.50401 -175.459)
(-8.89602 -2.89049 -175.459)
(-9.07598 2.2629 -175.459)
(-9.21173 -1.62428 -175.459)
(-9.30259 0.977742 -175.459)
(-9.34813 -0.326444 -175.459)
)

// edges

104
(
(0 1)
(2 0)
(3 2)
(4 3)
(5 4)
(6 5)
(7 6)
(8 7)
(9 8)
(10 9)
(11 10)
(12 11)
(13 12)
(14 13)
(15 14)
(16 15)
(17 16)
(18 17)
(19 18)
(20 19)
(21 20)
(22 21)
(23 22)
(24 23)
(25 24)
(26 25)
(27 26)
(28 27)
(29 28)
(30 29)
(31 30)
(32 31)
(33 32)
(34 33)
(35 34)
(36 35)
(37 36)
(38 37)
(39 38)
(40 39)
(41 40)
(42 41)
(43 42)
(44 43)
(45 44)
(46 45)
(47 46)
(48 47)
(49 48)
(50 49)
(51 50)
(52 51)
(53 52)
(54 53)
(55 54)
(56 55)
(57 56)
(58 57)
(1 58)
(59 60)
(61 62)
(63 59)
(62 64)
(65 63)
(64 66)
(67 65)
(66 68)
(69 67)
(68 70)
(71 69)
(70 72)
(73 71)
(72 74)
(75 73)
(74 76)
(77 75)
(76 78)
(79 77)
(78 80)
(81 79)
(80 82)
(83 81)
(82 83)
(84 61)
(60 85)
(86 84)
(85 87)
(88 86)
(87 89)
(90 88)
(89 91)
(92 90)
(91 93)
(94 92)
(93 95)
(96 94)
(95 97)
(98 96)
(97 99)
(100 98)
(99 101)
(102 100)
(103 102)
(101 103)
)

// concaveStart mixedStart nonFeatureStart
0 0 0
// internalStart flatStart openStart multipleStart
104 104 104 104
// normals

204
(
(0.030511 -0.572458 0.819366)
(0 0 1)
(0.0912068 -0.5661 0.819275)
(0 0 1)
(0.150813 -0.553014 0.819409)
(0 0 1)
(0.208864 -0.534167 0.819171)
(0 0 1)
(0.264306 -0.508645 0.819404)
(0 0 1)
(0.316956 -0.477793 0.8193)
(0 0 1)
(0.365901 -0.441341 0.81935)
(0 0 1)
(0.410709 -0.399918 0.81938)
(0 0 1)
(0.451039 -0.354112 0.819249)
(0 0 1)
(0.485926 -0.30404 0.819412)
(0 0 1)
(0.515757 -0.250797 0.819204)
(0 0 1)
(0.539236 -0.194461 0.819396)
(0 0 1)
(0.556954 -0.136068 0.819322)
(0 0 1)
(0.568247 -0.0760941 0.819332)
(0 0 1)
(0.573031 -0.0152596 0.819391)
(0 0 1)
(0.571652 0.0457553 0.81922)
(0.563279 0.106208 0.819413)
(0 0 1)
(0.549042 0.165553 0.819234)
(0 0 1)
(0.528135 0.22289 0.819386)
(0 0 1)
(0.501507 0.277796 0.819341)
(0 0 1)
(0.469173 0.329554 0.819311)
(0 0 1)
(0.43139 0.377473 0.8194)
(0 0 1)
(0.389029 0.421411 0.819188)
(0 0 1)
(0.341842 0.46012 0.819411)
(0 0 1)
(0.291105 0.494031 0.819262)
(0 0 1)
(0.236878 0.522031 0.819373)
(0 0 1)
(0.180054 0.544272 0.819359)
(0 0 1)
(0.121203 0.560426 0.819288)
(0 0 1)
(0.0609286 0.569965 0.819407)
(0 0 1)
(-0 0.573573 0.819154)
(-0 0 1)
(-0.0609286 0.569965 0.819407)
(-0 0 1)
(-0.121203 0.560426 0.819288)
(-0 0 1)
(-0.180054 0.544272 0.819359)
(-0 0 1)
(-0.236878 0.522031 0.819373)
(-0 0 1)
(-0.291105 0.494031 0.819262)
(-0 0 1)
(-0.341842 0.46012 0.819411)
(-0 0 1)
(-0.389029 0.421411 0.819188)
(-0 0 1)
(-0.43139 0.377473 0.8194)
(-0 0 1)
(-0.469173 0.329554 0.819311)
(-0 0 1)
(-0.501507 0.277796 0.819341)
(-0 0 1)
(-0.528135 0.22289 0.819386)
(-0 0 1)
(-0.549042 0.165553 0.819234)
(-0 0 1)
(-0.563279 0.106208 0.819413)
(-0 0 1)
(-0.571652 0.0457553 0.81922)
(-0 0 1)
(-0.573031 -0.0152596 0.819391)
(-0.568247 -0.0760941 0.819332)
(-0 0 1)
(-0.556954 -0.136068 0.819322)
(-0 0 1)
(-0.539236 -0.194461 0.819396)
(-0 0 1)
(-0.515757 -0.250797 0.819204)
(-0 0 1)
(-0.485926 -0.30404 0.819412)
(-0 0 1)
(-0.451039 -0.354112 0.819249)
(-0 0 1)
(-0.410709 -0.399918 0.81938)
(-0 0 1)
(-0.365901 -0.441341 0.81935)
(-0 0 1)
(-0.316956 -0.477793 0.8193)
(-0 0 1)
(-0.264306 -0.508645 0.819404)
(-0 0 1)
(-0.208864 -0.534167 0.819171)
(-0 0 1)
(-0.150813 -0.553014 0.819409)
(-0 0 1)
(-0.0912068 -0.5661 0.819275)
(-0 0 1)
(-0.030511 -0.572458 0.819366)
(-0 0 1)
(0 0 -1)
(-0.0493043 -0.705082 -0.707409)
(-0 0 -1)
(0 0.706743 -0.707471)
(-0 0 -1)
(0.0493043 -0.705082 -0.707409)
(-0 0 -1)
(0.0983781 0.699995 -0.707339)
(-0 0 -1)
(0.146943 -0.691312 -0.707458)
(-0 0 -1)
(0.194809 0.679382 -0.707453)
(-0 0 -1)
(0.24177 -0.664258 -0.707325)
(-0 0 -1)
(0.28748 0.645689 -0.707418)
(-0 0 -1)
(0.331796 -0.624017 -0.70747)
(-0 0 -1)
(0.374554 0.599412 -0.707399)
(-0 0 -1)
(0.415482 -0.571862 -0.707353)
(-0 0 -1)
(0.454291 0.541403 -0.707462)
(-0 0 -1)
(0.490961 -0.508405 -0.707447)
(-0 0 -1)
(0.525332 0.473011 -0.70731)
(-0 0 -1)
(0.556956 -0.435141 -0.707427)
(-0 0 -1)
(0.585917 0.395206 -0.707469)
(-0 0 -1)
(0.612128 -0.353412 -0.707389)
(-0 0 -1)
(0.635311 0.309861 -0.707366)
(-0 0 -1)
(0.655286 -0.264753 -0.707465)
(-0 0 -1)
(0.67218 0.218405 -0.707441)
(-0 0 -1)
(0.68592 -0.17102 -0.707295)
(-0 0 -1)
(0.696042 0.122731 -0.707434)
(-0 0 -1)
(0.702874 -0.0738747 -0.707467)
(0.706405 0.024668 -0.707378)
(0 0 -1)
(-0.0983781 0.699995 -0.707339)
(0 0 -1)
(-0.146943 -0.691312 -0.707458)
(0 0 -1)
(-0.194809 0.679382 -0.707453)
(0 0 -1)
(-0.24177 -0.664258 -0.707325)
(0 0 -1)
(-0.28748 0.645689 -0.707418)
(0 0 -1)
(-0.331796 -0.624017 -0.70747)
(0 0 -1)
(-0.374554 0.599412 -0.707399)
(0 0 -1)
(-0.415482 -0.571862 -0.707353)
(0 0 -1)
(-0.454291 0.541403 -0.707462)
(0 0 -1)
(-0.490961 -0.508405 -0.707447)
(0 0 -1)
(-0.525332 0.473011 -0.70731)
(0 0 -1)
(-0.556956 -0.435141 -0.707427)
(0 0 -1)
(-0.585917 0.395206 -0.707469)
(0 0 -1)
(-0.612128 -0.353412 -0.707389)
(0 0 -1)
(-0.635311 0.309861 -0.707366)
(0 0 -1)
(-0.655286 -0.264753 -0.707465)
(0 0 -1)
(-0.67218 0.218405 -0.707441)
(0 0 -1)
(-0.68592 -0.17102 -0.707295)
(0 0 -1)
(-0.696042 0.122731 -0.707434)
(0 0 -1)
(-0.706405 0.024668 -0.707378)
(-0.702874 -0.0738747 -0.707467)
)

// normal volume types

204
(
0
0
0
0
0
0
0
0
0
0
0
0
0
0
0
0
0
0
0
0
0
0
0
0
0
0
0
0
0
0
0
0
0
0
0
0
0
0
0
0
0
0
0
0
0
0
0
0
0
0
0
0
0
0
0
0
0
0
0
0
0
0
0
0
0
0
0
0
0
0
0
0
0
0
0
0
0
0
0
0
0
0
0
0
0
0
0
0
0
0
0
0
0
0
0
0
0
0
0
0
0
0
0
0
0
0
0
0
0
0
0
0
0
0
0
0
0
0
0
0
0
0
0
0
0
0
0
0
0
0
0
0
0
0
0
0
0
0
0
0
0
0
0
0
0
0
0
0
0
0
0
0
0
0
0
0
0
0
0
0
0
0
0
0
0
0
0
0
0
0
0
0
0
0
0
0
0
0
0
0
0
0
0
0
0
0
0
0
0
0
0
0
0
0
0
0
0
0
0
0
0
0
0
0
)

// normalDirections

104
(
2(1 -1)
2(1 -1)
2(1 -1)
2(1 -1)
2(1 -1)
2(1 -1)
2(1 -1)
2(1 -1)
2(1 -1)
2(1 -1)
2(1 -1)
2(1 -1)
2(1 -1)
2(1 -1)
2(1 -1)
2(1 -1)
2(1 -1)
2(1 -1)
2(1 -1)
2(1 -1)
2(1 -1)
2(1 -1)
2(1 -1)
2(1 -1)
2(1 -1)
2(1 -1)
2(1 -1)
2(1 -1)
2(1 -1)
2(1 -1)
2(1 -1)
2(1 -1)
2(1 -1)
2(1 -1)
2(1 -1)
2(1 -1)
2(1 -1)
2(1 -1)
2(1 -1)
2(1 -1)
2(1 -1)
2(1 -1)
2(1 -1)
2(1 -1)
2(1 -1)
2(1 -1)
2(1 -1)
2(1 -1)
2(1 -1)
2(1 -1)
2(1 -1)
2(1 -1)
2(1 -1)
2(1 -1)
2(1 -1)
2(1 -1)
2(1 -1)
2(1 -1)
2(1 -1)
2(1 -1)
2(1 -1)
2(1 -1)
2(1 -1)
2(1 -1)
2(1 -1)
2(1 -1)
2(1 -1)
2(1 -1)
2(1 -1)
2(1 -1)
2(1 -1)
2(1 -1)
2(1 -1)
2(1 -1)
2(1 -1)
2(1 -1)
2(1 -1)
2(1 -1)
2(1 -1)
2(1 -1)
2(1 -1)
2(1 -1)
2(1 -1)
2(1 -1)
2(1 -1)
2(1 -1)
2(1 -1)
2(1 -1)
2(1 -1)
2(1 -1)
2(1 -1)
2(1 -1)
2(1 -1)
2(1 -1)
2(1 -1)
2(1 -1)
2(1 -1)
2(1 -1)
2(1 -1)
2(1 -1)
2(1 -1)
2(1 -1)
2(1 -1)
2(1 -1)
)

// edgeNormals

104
(
2(0 1)
2(2 3)
2(4 5)
2(6 7)
2(8 9)
2(10 11)
2(12 13)
2(14 15)
2(16 17)
2(18 19)
2(20 21)
2(22 23)
2(24 25)
2(26 27)
2(28 29)
2(30 29)
2(31 32)
2(33 34)
2(35 36)
2(37 38)
2(39 40)
2(41 42)
2(43 44)
2(45 46)
2(47 48)
2(49 50)
2(51 52)
2(53 54)
2(55 56)
2(57 58)
2(59 60)
2(61 62)
2(63 64)
2(65 66)
2(67 68)
2(69 70)
2(71 72)
2(73 74)
2(75 76)
2(77 78)
2(79 80)
2(81 82)
2(83 84)
2(85 86)
2(87 86)
2(88 89)
2(90 91)
2(92 93)
2(94 95)
2(96 97)
2(98 99)
2(100 101)
2(102 103)
2(104 105)
2(106 107)
2(108 109)
2(110 111)
2(112 113)
2(114 115)
2(116 117)
2(118 119)
2(120 121)
2(122 123)
2(124 125)
2(126 127)
2(128 129)
2(130 131)
2(132 133)
2(134 135)
2(136 137)
2(138 139)
2(140 141)
2(142 143)
2(144 145)
2(146 147)
2(148 149)
2(150 151)
2(152 153)
2(154 155)
2(156 157)
2(158 159)
2(160 161)
2(160 162)
2(163 164)
2(165 166)
2(167 168)
2(169 170)
2(171 172)
2(173 174)
2(175 176)
2(177 178)
2(179 180)
2(181 182)
2(183 184)
2(185 186)
2(187 188)
2(189 190)
2(191 192)
2(193 194)
2(195 196)
2(197 198)
2(199 200)
2(201 202)
2(201 203)
)

// featurePointNormals
0()
// featurePointEdges
0()
// regionEdges
0()


// ************************************************************************* //
