/*--------------------------------*- C++ -*----------------------------------*\
| =========                 |                                                 |
| \\      /  F ield         | OpenFOAM: The Open Source CFD Toolbox           |
|  \\    /   O peration     | Version:  v2206                                 |
|   \\  /    A nd           | Website:  www.openfoam.com                      |
|    \\/     M anipulation  |                                                 |
\*---------------------------------------------------------------------------*/
FoamFile
{
    version     2.0;
    format      ascii;
    class       dictionary;
    object      fvSolution;
}
// * * * * * * * * * * * * * * * * * * * * * * * * * * * * * * * * * * * * * //

solvers
{
    ".*(rho|rhoFinal)"
    {
        solver          diagonal;
    }

    "alpha.*"
    {    
        // cAlpha          1;
        // nAlphaCorr      1;
        // nAlphaSubCycles 2;
    
        // MULESCorr       true;
        // nLimiterIter    1;

        // solver          smoothSolver;
        // smoother        symGaussSeidel;
        // tolerance       1e-8;
        // relTol          0;

        isoFaceTol      1e-6;
        surfCellTol     1e-6;
        nAlphaBounds    3;
        snapTol         1e-12;
        clip            true;
        reconstructionScheme isoAlpha;
        writeFields     true;

        nAlphaSubCycles 1;
        cAlpha          1; // Note: cAlpha is not used by isoAdvector but must
                           // be specified because interfacePropertes object
                           // reads it during construction.
    }

    "U.*"
    {
        solver          smoothSolver;
        smoother        GaussSeidel;
        tolerance       1e-06;
        relTol          0;
    }
    
    p_rgh
    {
        solver          GAMG;
        tolerance       1e-8;
        relTol          0.01;
        smoother        DICGaussSeidel;
        nPreSweeps      0;
        nPostSweeps     2;
        cacheAgglomeration true;
        nCellsInCoarsestLevel 10;
        agglomerator    faceAreaPair;
        mergeLevels     1;
        maxIter         100;
    }

    p_rghFinal
    {
        solver          PCG;
        preconditioner
        {
            preconditioner  GAMG;
            tolerance       1e-6;
            relTol          0;
            nVcycles        2;
            smoother        DICGaussSeidel;
            nPreSweeps      0;
            nPostSweeps     2;
            nFinestSweeps   2;
            cacheAgglomeration true;
            nCellsInCoarsestLevel 10;
            agglomerator    faceAreaPair;
            mergeLevels     1;
        };
        tolerance       1e-9;
        relTol          0;
        maxIter         300;
    }

    "pcorr.*"
    {
        $p_rgh;
        relTol          0;
    }
    
    "(k.*|epsilon.*|omega.*|Theta.*).*"
    {
        solver          PBiCGStab;
        preconditioner  DILU;
        tolerance       1e-7;
        relTol          0;
    }
    
    "(T|S|X|G).*"
    {
        // solver          smoothSolver;
        // smoother        symGaussSeidel;
        // tolerance       1e-7;
        // relTol          0.0;

        solver          PBiCGStab;
        preconditioner  DILU;
        tolerance       1e-6;
        relTol          1e-6;
    }

}

PIMPLE
{
    momentumPredictor   false;
    nCorrectors         3; // 2;
    nOuterCorrectors    1;
    nNonOrthogonalCorrectors 0;
    // pRefCell            0;
    // pRefValue           101325;
}

relaxationFactors
{
    fields {}
    equations
    {
        ".*"            1;
        // "(alpha.*|U)"   0.95;
    }
}


// ************************************************************************* //
