/*--------------------------------*- C++ -*----------------------------------*\
  =========                 |
  \\      /  F ield         | OpenFOAM: The Open Source CFD Toolbox
   \\    /   O peration     | Website:  https://openfoam.org
    \\  /    A nd           | Version:  6
     \\/     M anipulation  |
\*---------------------------------------------------------------------------*/
FoamFile
{
    version     2.0;
    format      ascii;
    class       extendedFeatureEdgeMesh;
    location    "constant/extendedFeatureEdgeMesh";
    object      airfoil.extendedFeatureEdgeMesh;
}
// * * * * * * * * * * * * * * * * * * * * * * * * * * * * * * * * * * * * * //

// points

114
(
(-7.7e-05 -0.001875 -0.2)
(-7.7e-05 -0.001875 0.2)
(0.054879 0.024564 -0.2)
(0.054879 0.024564 0.2)
(0.077019 0.073255 -0.2)
(0.077019 0.073255 0.2)
(0.105562 0.027345 -0.2)
(0.105562 0.027345 0.2)
(0.972678 -0.170169 -0.2)
(0.972678 -0.170169 0.2)
(0.972247 -0.171058 -0.2)
(0.972247 -0.171058 0.2)
(0.002011 0.004093 -0.2)
(0.002011 0.004093 0.2)
(0.008899 0.010332 -0.2)
(0.008899 0.010332 0.2)
(0.020116 0.016071 -0.2)
(0.020116 0.016071 0.2)
(0.035473 0.020928 -0.2)
(0.035473 0.020928 0.2)
(0.003214 -0.008091 -0.2)
(0.003214 -0.008091 0.2)
(0.011635 -0.0151 -0.2)
(0.011635 -0.0151 0.2)
(0.024904 -0.022253 -0.2)
(0.024904 -0.022253 0.2)
(0.043189 -0.029356 -0.2)
(0.043189 -0.029356 0.2)
(0.066495 -0.036481 -0.2)
(0.066495 -0.036481 0.2)
(0.094581 -0.043687 -0.2)
(0.094581 -0.043687 0.2)
(0.127155 -0.050944 -0.2)
(0.127155 -0.050944 0.2)
(0.16388 -0.058222 -0.2)
(0.16388 -0.058222 0.2)
(0.204413 -0.065491 -0.2)
(0.204413 -0.065491 0.2)
(0.24833 -0.072747 -0.2)
(0.24833 -0.072747 0.2)
(0.295154 -0.079988 -0.2)
(0.295154 -0.079988 0.2)
(0.136571 0.026294 -0.2)
(0.136571 0.026294 0.2)
(0.171112 0.023565 -0.2)
(0.171112 0.023565 0.2)
(0.208907 0.019195 -0.2)
(0.208907 0.019195 0.2)
(0.249671 0.013236 -0.2)
(0.249671 0.013236 0.2)
(0.293056 0.005779 -0.2)
(0.293056 0.005779 0.2)
(0.338666 -0.003045 -0.2)
(0.338666 -0.003045 0.2)
(0.344349 -0.0872 -0.2)
(0.344349 -0.0872 0.2)
(0.386092 -0.013093 -0.2)
(0.386092 -0.013093 0.2)
(0.39534 -0.094364 -0.2)
(0.39534 -0.094364 0.2)
(0.434899 -0.024177 -0.2)
(0.434899 -0.024177 0.2)
(0.447557 -0.101428 -0.2)
(0.447557 -0.101428 0.2)
(0.484592 -0.036107 -0.2)
(0.484592 -0.036107 0.2)
(0.500399 -0.108339 -0.2)
(0.500399 -0.108339 0.2)
(0.534666 -0.048643 -0.2)
(0.534666 -0.048643 0.2)
(0.553267 -0.115052 -0.2)
(0.553267 -0.115052 0.2)
(0.605581 -0.121504 -0.2)
(0.605581 -0.121504 0.2)
(0.584596 -0.06159 -0.2)
(0.584596 -0.06159 0.2)
(0.633826 -0.074708 -0.2)
(0.633826 -0.074708 0.2)
(0.65679 -0.12766 -0.2)
(0.65679 -0.12766 0.2)
(0.681849 -0.087765 -0.2)
(0.681849 -0.087765 0.2)
(0.728096 -0.10052 -0.2)
(0.728096 -0.10052 0.2)
(0.706369 -0.133559 -0.2)
(0.706369 -0.133559 0.2)
(0.772003 -0.11273 -0.2)
(0.772003 -0.11273 0.2)
(0.753706 -0.139275 -0.2)
(0.753706 -0.139276 0.2)
(0.81302 -0.124227 -0.2)
(0.81302 -0.124227 0.2)
(0.798156 -0.144829 -0.2)
(0.798156 -0.144829 0.2)
(0.850632 -0.134819 0.2)
(0.850632 -0.134819 -0.2)
(0.839078 -0.150186 -0.2)
(0.839078 -0.150186 0.2)
(0.884366 -0.144372 -0.2)
(0.884366 -0.144372 0.2)
(0.875913 -0.15528 -0.2)
(0.875913 -0.15528 0.2)
(0.913747 -0.152751 -0.2)
(0.913747 -0.152751 0.2)
(0.908105 -0.160042 -0.2)
(0.908105 -0.160042 0.2)
(0.938418 -0.159914 -0.2)
(0.938418 -0.159914 0.2)
(0.935185 -0.16437 -0.2)
(0.935185 -0.16437 0.2)
(0.958116 -0.165794 -0.2)
(0.958116 -0.165794 0.2)
(0.956682 -0.16811 -0.2)
(0.956682 -0.16811 0.2)
)

// edges

120
(
(2 3)
(6 7)
(1 0)
(4 5)
(8 9)
(11 10)
(0 12)
(13 1)
(12 14)
(15 13)
(14 16)
(17 15)
(16 18)
(19 17)
(18 2)
(3 19)
(2 4)
(5 3)
(4 6)
(7 5)
(20 0)
(1 21)
(22 20)
(21 23)
(24 22)
(23 25)
(26 24)
(25 27)
(28 26)
(27 29)
(30 28)
(29 31)
(32 30)
(31 33)
(34 32)
(33 35)
(36 34)
(35 37)
(38 36)
(37 39)
(40 38)
(39 41)
(6 42)
(43 7)
(42 44)
(45 43)
(44 46)
(47 45)
(46 48)
(49 47)
(48 50)
(51 49)
(50 52)
(53 51)
(54 40)
(41 55)
(52 56)
(57 53)
(58 54)
(55 59)
(56 60)
(61 57)
(62 58)
(59 63)
(60 64)
(65 61)
(66 62)
(63 67)
(64 68)
(69 65)
(70 66)
(67 71)
(72 70)
(71 73)
(68 74)
(75 69)
(74 76)
(77 75)
(78 72)
(73 79)
(76 80)
(81 77)
(80 82)
(83 81)
(84 78)
(79 85)
(82 86)
(87 83)
(88 84)
(85 89)
(86 90)
(91 87)
(92 88)
(89 93)
(94 91)
(90 95)
(96 92)
(93 97)
(95 98)
(99 94)
(100 96)
(97 101)
(98 102)
(103 99)
(104 100)
(101 105)
(102 106)
(107 103)
(108 104)
(105 109)
(106 110)
(111 107)
(112 108)
(109 113)
(110 8)
(9 111)
(10 112)
(113 11)
(8 10)
(11 9)
)

// concaveStart mixedStart nonFeatureStart
0 0 12
// internalStart flatStart openStart multipleStart
2 6 6 120
// normals

114
(
(0.9438978015 -0.3302377027 0)
(0.9438978015 -0.3302377027 0)
(0.6713273922 -0.7411609356 0)
(0.6713273922 -0.7411609356 0)
(0.4554801927 -0.8902459177 0)
(0.4554801927 -0.8902459177 0)
(0.3015503001 -0.9534502695 0)
(0.3015503001 -0.9534502695 0)
(0.184160095 -0.9828962608 0)
(0.184160095 -0.9828962608 0)
(0.9103120472 -0.41392267 0)
(0.9103120472 -0.41392267 0)
(-0.8492492334 -0.5279921775 0)
(-0.8492492334 -0.5279921775 0)
(0.883777541 0.4679073178 0)
(0.883777541 0.4679073178 -0)
(0.639726429 0.7686026906 0)
(0.639726429 0.7686026906 -0)
(0.4745191015 0.8802452058 0)
(0.4745191015 0.8802452058 -0)
(0.3620993645 0.9321395015 0)
(0.3620993645 0.9321395015 -0)
(0.2923582233 0.9563088775 0)
(0.2923582233 0.9563088775 -0)
(0.2485197243 0.9686268356 0)
(0.2485197243 0.9686268356 -0)
(0.2174539278 0.9760705862 0)
(0.2174539278 0.9760705862 -0)
(0.1943950953 0.9809233135 0)
(0.1943950953 0.9809233135 -0)
(0.1765192858 0.9842971816 0)
(0.1765192858 0.9842971816 -0)
(0.1630108112 0.9866242828 0)
(0.1630108112 0.9866242828 -0)
(0.1528263371 0.98825306 0)
(0.1528263371 0.98825306 -0)
(-0.03387393484 -0.9994261136 0)
(-0.03387393484 -0.9994261136 0)
(-0.07876211447 -0.9968934393 0)
(-0.07876211447 -0.9968934393 0)
(-0.1148585452 -0.9933818574 0)
(-0.1148585452 -0.9933818574 0)
(-0.1446455784 -0.9894835303 0)
(-0.1446455784 -0.9894835303 0)
(-0.1693956975 -0.9855481204 0)
(-0.1693956975 -0.9855481204 0)
(-0.189944266 -0.9817948746 0)
(-0.189944266 -0.9817948746 0)
(0.1450498705 0.9894243453 0)
(0.1450498705 0.9894243453 -0)
(-0.2072661329 -0.9782845957 0)
(-0.2072661329 -0.9782845957 0)
(0.1391289615 0.9902742711 0)
(0.1391289615 0.9902742711 -0)
(-0.221459611 -0.9751695446 0)
(-0.221459611 -0.9751695446 0)
(0.1340604473 0.9909731563 0)
(0.1340604473 0.9909731563 -0)
(-0.2334410387 -0.9723709588 0)
(-0.2334410387 -0.9723709588 0)
(0.1296817163 0.9915556729 0)
(0.1296817163 0.9915556729 -0)
(-0.2428546897 -0.9700626782 0)
(-0.2428546897 -0.9700626782 0)
(0.125965209 0.9920346597 0)
(0.125965209 0.9920346597 -0)
(0.1224047609 0.992480264 0)
(0.1224047609 0.992480264 -0)
(-0.2510018543 -0.9679866059 0)
(-0.2510018543 -0.9679866059 0)
(-0.2574793975 -0.9662837885 0)
(-0.2574793975 -0.9662837885 0)
(0.119353932 0.9928517709 0)
(0.119353932 0.9928517709 -0)
(-0.2623658148 -0.9649684861 0)
(-0.2623658148 -0.9649684861 0)
(-0.2658748935 -0.964007542 0)
(-0.2658748935 -0.964007542 0)
(0.1181484712 0.992995941 0)
(0.1181484712 0.992995941 -0)
(-0.2679211237 -0.96344085 0)
(-0.2679211237 -0.96344085 0)
(0.1198803929 0.9927883417 0)
(0.1199010642 0.9927858454 2.481964613e-06)
(-0.2698963642 -0.9628893771 0)
(-0.2698963642 -0.9628893771 0)
(0.1239852791 0.9922840574 2.480710143e-06)
(0.1239632985 0.9922868036 -0)
(-0.2710686904 -0.962560006 0)
(-0.2710686904 -0.962560006 0)
(0.1298001256 0.9915401794 0)
(0.1298001256 0.9915401794 -0)
(-0.2724714373 -0.9621638716 0)
(-0.2724714373 -0.9621638716 0)
(0.1369886497 0.9905726172 0)
(0.1369886497 0.9905726172 -0)
(-0.2742498974 -0.96165846 0)
(-0.2742498974 -0.96165846 0)
(0.1463326043 0.9892354467 0)
(0.1463326043 0.9892354467 -0)
(-0.2788264077 -0.9603415196 0)
(-0.2788264077 -0.9603415196 0)
(0.1578198365 0.9874679231 0)
(0.1578198365 0.9874679231 -0)
(-0.2860355264 -0.9582190134 0)
(-0.2860355264 -0.9582190134 0)
(0.1714030655 0.9852009892 0)
(0.1714030655 0.9852009892 -0)
(-0.2877340216 -0.9577103596 0)
(-0.2877340216 -0.9577103596 0)
(0.1860909649 0.98253252 0)
(0.1860909649 0.98253252 -0)
(-0.8998261476 0.4362486722 0)
(-0.8998261476 0.4362486722 0)
)

// normal volume types

114
(
0
0
0
0
0
0
0
0
0
0
0
0
0
0
0
0
0
0
0
0
0
0
0
0
0
0
0
0
0
0
0
0
0
0
0
0
0
0
0
0
0
0
0
0
0
0
0
0
0
0
0
0
0
0
0
0
0
0
0
0
0
0
0
0
0
0
0
0
0
0
0
0
0
0
0
0
0
0
0
0
0
0
0
0
0
0
0
0
0
0
0
0
0
0
0
0
0
0
0
0
0
0
0
0
0
0
0
0
0
0
0
0
0
0
)

// normalDirections

120
(
2(1 -1)
2(1 -1)
2(1 -1)
2(1 -1)
2(1 -1)
2(1 -1)
1(1)
1(1)
1(1)
1(1)
1(1)
1(1)
1(1)
1(1)
1(1)
1(1)
1(1)
1(1)
1(1)
1(1)
1(1)
1(1)
1(1)
1(1)
1(1)
1(1)
1(1)
1(1)
1(1)
1(1)
1(1)
1(1)
1(1)
1(1)
1(1)
1(1)
1(1)
1(1)
1(1)
1(1)
1(1)
1(1)
1(1)
1(1)
1(1)
1(1)
1(1)
1(1)
1(1)
1(1)
1(1)
1(1)
1(1)
1(1)
1(1)
1(1)
1(1)
1(1)
1(1)
1(1)
1(1)
1(1)
1(1)
1(1)
1(1)
1(1)
1(1)
1(1)
1(1)
1(1)
1(1)
1(1)
1(1)
1(1)
1(1)
1(1)
1(1)
1(1)
1(1)
1(1)
1(1)
1(1)
1(1)
1(1)
1(1)
1(1)
1(1)
1(1)
1(1)
1(1)
1(1)
1(1)
1(1)
1(1)
1(1)
1(1)
1(1)
1(1)
1(1)
1(1)
1(1)
1(1)
1(1)
1(1)
1(1)
1(1)
1(1)
1(1)
1(1)
1(1)
1(1)
1(1)
1(1)
1(1)
1(1)
1(1)
1(1)
1(1)
1(1)
1(1)
)

// edgeNormals

120
(
2(8 11)
2(12 37)
2(1 14)
2(10 13)
2(108 113)
2(111 112)
1(0)
1(1)
1(2)
1(3)
1(4)
1(5)
1(6)
1(7)
1(8)
1(9)
1(10)
1(11)
1(12)
1(13)
1(14)
1(15)
1(16)
1(17)
1(18)
1(19)
1(20)
1(21)
1(22)
1(23)
1(24)
1(25)
1(26)
1(27)
1(28)
1(29)
1(30)
1(31)
1(32)
1(33)
1(34)
1(35)
1(36)
1(37)
1(38)
1(39)
1(40)
1(41)
1(42)
1(43)
1(44)
1(45)
1(46)
1(47)
1(48)
1(49)
1(50)
1(51)
1(52)
1(53)
1(54)
1(55)
1(56)
1(57)
1(58)
1(59)
1(60)
1(61)
1(62)
1(63)
1(64)
1(65)
1(66)
1(67)
1(68)
1(69)
1(70)
1(71)
1(72)
1(73)
1(74)
1(75)
1(76)
1(77)
1(78)
1(79)
1(80)
1(81)
1(82)
1(83)
1(84)
1(85)
1(86)
1(87)
1(88)
1(89)
1(90)
1(91)
1(92)
1(93)
1(94)
1(95)
1(96)
1(97)
1(98)
1(99)
1(100)
1(101)
1(102)
1(103)
1(104)
1(105)
1(106)
1(107)
1(108)
1(109)
1(110)
1(111)
1(112)
1(113)
)

// featurePointNormals

12
(
2(1 14)
2(1 14)
2(8 11)
2(8 11)
2(10 13)
2(10 13)
2(12 37)
2(12 37)
2(108 113)
2(108 113)
2(111 112)
2(111 112)
)

// featurePointEdges

12
(
3(2 6 20)
3(2 7 21)
3(0 14 16)
3(0 15 17)
3(3 16 18)
3(3 17 19)
3(1 18 42)
3(1 19 43)
3(4 114 118)
3(4 115 119)
3(5 116 118)
3(5 117 119)
)

// regionEdges

114
(
6
7
8
9
10
11
12
13
14
15
16
17
18
19
20
21
22
23
24
25
26
27
28
29
30
31
32
33
34
35
36
37
38
39
40
41
42
43
44
45
46
47
48
49
50
51
52
53
54
55
56
57
58
59
60
61
62
63
64
65
66
67
68
69
70
71
72
73
74
75
76
77
78
79
80
81
82
83
84
85
86
87
88
89
90
91
92
93
94
95
96
97
98
99
100
101
102
103
104
105
106
107
108
109
110
111
112
113
114
115
116
117
118
119
)



// ************************************************************************* //
