/*--------------------------------*- C++ -*----------------------------------*\
| =========                 |                                                 |
| \\      /  F ield         | OpenFOAM: The Open Source CFD Toolbox           |
|  \\    /   O peration     | Version:  v1912                                 |
|   \\  /    A nd           | Website:  www.openfoam.com                      |
|    \\/     M anipulation  |                                                 |
\*---------------------------------------------------------------------------*/
FoamFile
{
    version     2.0;
    format      ascii;
    class       volScalarField;
    location    "0";
    object      alphat;
}
// * * * * * * * * * * * * * * * * * * * * * * * * * * * * * * * * * * * * * //


dimensions      [0 2 -1 0 0 0 0];

internalField	uniform 0;

boundaryField
{
    inlet0
    {
        type            cyclic;
    }
    inlet1
    {
        type            cyclic;
    }
    outlet0
    {
        type            cyclic;
    }
    outlet1
    {
        type            cyclic;
    }
    upperAtm
    {
        type            calculated;
        Prt             0.85;
        value           uniform 0;
    }
    ground
    {
        type            alphatJayatillekeWallFunction;
        Prt             0.85;
        value           uniform 0;
    }
    frontAtm0
    {
        type            cyclic;
    }
    frontAtm1
    {
        type            cyclic;
    }
    backAtm0
    {
        type            cyclic;
    }
    backAtm1
    {
        type            cyclic;
    }
}