/*--------------------------------*- C++ -*----------------------------------*\
| =========                 |                                                 |
| \\      /  F ield         | OpenFOAM: The Open Source CFD Toolbox           |
|  \\    /   O peration     | Version:  2212                                  |
|   \\  /    A nd           | Website:  www.openfoam.com                      |
|    \\/     M anipulation  |                                                 |
\*---------------------------------------------------------------------------*/
FoamFile
{
    version     2.0;
    format      ascii;
    arch        "LSB;label=64;scalar=64";
    class       featureEdgeMesh;
    location    "constant/triSurface";
    object      GeoTank_ss.eMesh;
}
// * * * * * * * * * * * * * * * * * * * * * * * * * * * * * * * * * * * * * //


// points:

1582
(
(-3.61329007149 -9.5943403244 -83.4562683105)
(-7.78930425644 -6.38329029083 -65.4456939697)
(-9.10999774933 -4.55659627914 -83.4738311768)
(-9.81238651276 2.29241466522 -65.4514465332)
(-7.43618774414 6.89925861359 -65.4674453735)
(-7.89951562881 6.41623306274 -83.4837493896)
(-2.6179227829 9.79422855377 -83.4404983521)
(-1.86199700832 10.0118999481 -65.4651870728)
(3.68750810623 9.37468910217 -65.4485321045)
(7.8332862854 6.42009830475 -65.4512023926)
(8.91967010498 3.95504403114 -84.2030410767)
(10.2171754837 -1.21544849873 -83.4195022583)
(7.11181402206 -7.20807981491 -65.4493865967)
(2.57478141785 -9.75456809998 -65.4633407593)
(7.01805925369 -7.29780054092 -83.4723815918)
(6.61950063705 7.59239721298 -83.4722442627)
(2.58956050873 9.74845123291 -83.4588928223)
(21.6345272064 -27.3489074707 -69.800201416)
(21.6720066071 -29.1815242767 -67.6722488403)
(-34.4927711487 -5.06867790222 -69.811416626)
(-36.1079444885 -4.17774534225 -67.6722488403)
(-26.3568477631 38.8965682983 80.3316345215)
(-25.0165615082 43.3269958496 77.0148010254)
(7.89951610565 6.41623258591 84.5637435913)
(7.43618822098 6.89925813675 66.5474472046)
(2.61792302132 9.79422855377 84.5205001831)
(1.86199724674 10.0118999481 66.5451812744)
(-3.68750834465 9.37468910217 66.5285339355)
(-7.8332862854 6.42009830475 66.5311965942)
(-8.91967201233 3.95504331589 85.2830429077)
(-10.2171754837 -1.21544861794 84.4995040894)
(-7.11181402206 -7.20808029175 66.5293807983)
(3.1911611557 -9.68840026855 66.5630874634)
(3.61329007149 -9.5943403244 84.5362625122)
(9.10999774933 -4.55659627914 84.5538253784)
(9.8201379776 -2.30332589149 66.5415496826)
(-6.61950063705 7.59239768982 84.5522460938)
(-2.58956074715 9.74845123291 84.5388946533)
(-7.01805973053 -7.29780054092 84.5523834229)
(46.8638420105 3.37741589546 80.3316345215)
(50.0305557251 0.00152488762978 77.0148239136)
(34.4927482605 -5.06867694855 70.8914260864)
(-21.6719150543 -29.1814689636 68.7523193359)
(-23.7390880585 -44.1300125122 75.7114334106)
(-19.076467514 -42.7552909851 78.9827346802)
(-20.5069904327 -42.273979187 80.3316345215)
(-8.14794445038 4.37244796753 65.5363693237)
(-8.9474029541 -1.60659337044 65.5393676758)
(-1.73221635818 9.16033935547 65.5339431763)
(5.18043613434 7.5299487114 65.5386276245)
(0.468561351299 -9.06564331055 65.5395126343)
(-5.73241710663 -7.35214519501 65.5339355469)
(-8.14794445038 -4.37244796753 85.5436325073)
(-1.73221635818 -9.16033935547 85.5460586548)
(6.57554340363 -6.64323949814 85.5476226807)
(3.37245750427 8.80979824066 85.551864624)
(4.78782224655 1.9768371582 215.540008545)
(4.47331237793 -2.46280384064 215.540008545)
(0.282319575548 5.27534294128 215.540008545)
(-3.79814147949 -3.34119772911 215.540008545)
(-5.09762430191 -0.0480062887073 215.540008545)
(-1.1210129261 -4.98189306259 215.540008545)
(1.87430465221 -4.66165208817 215.540008545)
(-3.80881428719 3.41981077194 215.540008545)
(3.21094751358 -2.73729014397 -85.4667282104)
(3.9497551918 1.02774429321 -85.4614944458)
(-2.1866338253 -3.78736114502 -85.4816055298)
(-3.86842393875 1.88459742069 -85.4755706787)
(1.13290679455 4.13095092773 -85.4713516235)
(8.14794254303 -4.37244606018 -84.4636383057)
(1.73216164112 -9.16005516052 -84.4663391113)
(-6.57554149628 -6.64323759079 -84.467628479)
(-3.37227153778 8.80930995941 -84.472366333)
(8.14795017242 4.37244987488 -64.4563751221)
(8.94740772247 -1.60659492016 -64.4593734741)
(1.73221695423 9.16034507751 -64.4539489746)
(5.73242044449 -7.35214948654 -64.4539413452)
(26.4323558807 42.4742431641 -74.7895584106)
(27.4889354706 37.898349762 -77.9027328491)
(25.9074440002 42.3598136902 -77.1385421753)
(25.9024734497 37.6571540833 -79.4778442383)
(23.5675773621 -44.1282196045 -74.7895812988)
(19.0764656067 -42.7552909851 -77.9027328491)
(23.7309741974 -43.6164054871 -77.1385574341)
(19.6608161926 -41.2607765198 -79.4778442383)
(-47.0061340332 4.75857591629 -77.8043670654)
(-50.1058921814 0.333595842123 -76.2782821655)
(-50.0344772339 1.32580900192 -74.4657363892)
(-46.127040863 3.52364563942 -79.3978652954)
(-21.6345081329 -27.3488826752 70.8802185059)
(-25.0139751434 -43.3284912109 77.0148086548)
(-26.3481559753 42.6236686707 75.7114257812)
(-27.4889354706 37.898349762 78.9827346802)
(49.5375671387 2.89122438431 77.0277023315)
(45.2620582581 5.05163764954 79.1774291992)
(36.1078529358 -4.17769575119 68.7523193359)
(8.26806735992 6.99163961411 -79.6115112305)
(1.92089653015 -10.6561479568 -79.6115264893)
(-10.1890268326 3.66455745697 -79.6114959717)
(-8.26804733276 6.99161434174 80.6915206909)
(10.1890201569 3.6645565033 80.6914978027)
(-1.92089009285 -10.6561203003 80.6915359497)
(-2.72187542915 -16.4598045349 157.800460815)
(9.03982162476 -13.7495632172 157.794830322)
(16.5293388367 -3.11192250252 157.807556152)
(12.9108028412 10.3729114532 157.797012329)
(-1.23473256508e-07 16.8977661133 157.808837891)
(-15.7987108231 6.855509758 157.833786011)
(-13.6358337402 -9.39865875244 157.796981812)
(5.90402793884 -7.77605056763 -175.50062561)
(-3.288646698 -9.01971817017 -175.471496582)
(-0.806609153748 9.62420558929 -175.481002808)
(7.1320605278 6.42679357529 -175.471496582)
(9.5015296936 -0.423941582441 -175.465667725)
(-8.85385608673 4.10018873215 -175.506561279)
(-8.59356689453 -4.07881784439 -175.464294434)
(3.87799477577 -4.68806838989 65.5392913818)
(3.87799477577 4.68806838989 65.5392913818)
(-5.02428150177 0.808953046799 86.5886917114)
(3.87799477577 4.68806838989 85.5407104492)
(6.31429052353 -3.44928743345e-08 85.5473098755)
(3.87799477577 -4.68806838989 85.5407104492)
(3.25566005707 -3.89036154747 86.5087051392)
(-0.702323973179 -6.19832992554 85.544342041)
(-3.47041034698 -3.70681905746 86.5041275024)
(-4.83093500137 -3.69845938683 85.5407028198)
(8.90431022644 4.81129550934 -78.1837387085)
(2.01836943626 9.89171218872 -68.3270645142)
(1.90452528 10.4962501526 -69.1212158203)
(-0.201433539391 10.1675014496 -70.6698226929)
(7.65335083008 6.48700666428 -80.5481491089)
(8.15528774261 6.95309066772 -79.6222610474)
(4.49244308472 9.51529884338 -75.1092376709)
(12.8621721268 32.408946991 -69.8056716919)
(12.8094329834 35.5254096985 -67.5605773926)
(14.400554657 32.5311546326 -68.181137085)
(13.9126787186 35.2649116516 -65.817489624)
(-0.542631387711 -10.068315506 -78.2260131836)
(-8.69381713867 -5.27325725555 -70.6236801147)
(-9.57762241364 -3.19739603996 -68.3341064453)
(-8.61880588531 5.30576181412 -78.1837387085)
(8.92124652863 -4.8661813736 -70.6437988281)
(7.67851781845 -6.64235162735 -68.5590820312)
(1.79117047787 -9.86957454681 -80.553062439)
(-9.44279670715 3.38379263878 -80.5531005859)
(1.94392609596 -10.5391530991 -79.6223373413)
(5.99397182465 -8.6483335495 -75.1096496582)
(0.144411683083 -10.5249137878 -78.132850647)
(8.31875133514 -7.21208524704 -69.1277084351)
(24.3725757599 -28.8404006958 -67.5901031494)
(23.5839710236 -29.6811904907 -65.817489624)
(-10.0992889404 3.5862057209 -79.622177124)
(-10.0011539459 -3.57806587219 -69.0864257812)
(-37.1871643066 -6.72859954834 -67.5575790405)
(-37.5509223938 -5.68349742889 -65.6987075806)
(-8.90430736542 4.81130218506 79.2637405396)
(-1.90452861786 10.496254921 70.2012252808)
(-2.01837301254 9.89171123505 69.4070663452)
(0.201556622982 10.16746521 71.7498245239)
(-4.49243164062 9.51529407501 76.189239502)
(-8.15529251099 6.95309448242 80.702255249)
(-7.65335226059 6.48700332642 81.6281509399)
(-12.8621606827 32.4089279175 70.8856811523)
(-12.7550678253 35.6489753723 68.5118637085)
(-14.3939495087 32.5325965881 69.2682723999)
(8.61880397797 5.3057641983 79.2637405396)
(-8.92127990723 -4.86603736877 71.7237930298)
(-7.68262434006 -6.56093788147 69.5929412842)
(-2.05918169022 -9.89040470123 76.7614898682)
(0.261935383081 -10.1431760788 79.2362365723)
(8.69373512268 -5.27333831787 71.7036743164)
(9.57762241364 -3.19739413261 69.4141082764)
(9.44279575348 3.38379597664 81.6330947876)
(-1.79117226601 -9.86957359314 81.6330566406)
(10.099281311 3.5862057209 80.7021865845)
(10.0011529922 -3.57806420326 70.1664276123)
(37.1751365662 -6.68506526947 68.6405334473)
(-5.88411045074 -8.85440444946 73.3096847534)
(-8.28138637543 -7.04447698593 70.2286911011)
(-5.99396848679 -8.64834308624 76.1896514893)
(-1.94393050671 -10.5391578674 80.7023391724)
(-23.6069965363 -29.6761989594 66.8925857544)
(-4.17978429794 -2.8095498085 64.5274963379)
(-6.11025762558 -1.89949011803 65.5275421143)
(-5.08131742477 -0.0335260108113 64.5205612183)
(-1.9778418541 -4.65982294083 64.5243377686)
(-0.702324032784 -6.19833040237 65.53565979)
(3.22158765793 -3.93910503387 64.5871276855)
(4.77780199051 -1.61171650887 64.5219955444)
(6.31429052353 3.44928920981e-08 65.5326919556)
(4.93865346909 1.207903862 64.4863586426)
(3.16996431351 3.96818494797 64.5317382812)
(-0.702323973179 6.19832992554 65.53565979)
(0.965211689472 4.9237613678 64.5227127075)
(-1.52479577065 4.83749675751 64.5234298706)
(-4.83093500137 3.69845938683 65.5392990112)
(-4.0805683136 3.02821230888 64.5331497192)
(5.03882789612 -1.17471456528 -63.4336471558)
(2.51759123802 -4.49273443222 -63.4775390625)
(-2.43685221672 -4.54047489166 -63.3428268433)
(-5.09932518005 -0.740402817726 -63.4624404907)
(-4.10429668427 2.98999738693 -63.4601173401)
(-1.06757509708 4.98307609558 -63.4174537659)
(3.51896548271 3.84035587311 -63.4176216125)
(-3.7496714592 3.37349796295 86.5118713379)
(-6.11025762558 1.89949011803 85.5524597168)
(-1.3825404644 4.89879703522 86.5881118774)
(-0.702324032784 6.19833040237 85.544342041)
(1.83911085129 4.74235057831 86.5478515625)
(4.23554849625 2.79920291901 86.5048370361)
(4.74542236328 2.56456756592 -84.4749755859)
(3.91767096519 -3.40882968903 -84.4636764526)
(-1.89194655418 -5.05123758316 -84.474609375)
(-5.2664065361 0.880427360535 -84.4712142944)
(-1.00877416134 5.13883256912 -84.4653015137)
(6.11025953293 -1.89949119091 -64.4475479126)
(0.702324509621 -6.19833230972 -64.4556655884)
(-3.87799620628 -4.68807077408 -64.4592971802)
(-6.31429290771 3.44930732865e-08 -64.4526977539)
(-3.87799596786 4.68807077408 -64.4592971802)
(0.702324450016 6.19833230972 -64.4556655884)
(4.83093738556 3.6984603405 -64.4593048096)
(-26.7183666229 -27.3915977478 -34.8065338135)
(37.4971847534 -5.58394670486 66.8956604004)
(-28.2645072937 -25.5970363617 -40.9389152527)
(-24.5025787354 -28.8544082642 68.5463027954)
(-21.8999271393 31.1898670197 -21.8846950531)
(-24.6172370911 29.0842609406 -14.280875206)
(-13.8968458176 35.2823600769 66.8925933838)
(9.05529880524 5.41948509216 -78.1726150513)
(9.00396347046 4.43842792511 -78.1651382446)
(1.87765264511 10.2033176422 -68.8349685669)
(1.82131111622 9.85979366302 -68.2013473511)
(-0.761665821075 9.99388885498 -70.6304092407)
(-8.35272979736 5.57313680649 -78.165145874)
(-9.78952312469 -3.474214077 -68.8574142456)
(-9.05531311035 5.41951036453 79.2526168823)
(-9.00396442413 4.43842363358 79.2451400757)
(-1.87764918804 10.2033147812 69.9149627686)
(-1.82131314278 9.85979652405 69.2813644409)
(0.761665344238 9.99388885498 71.7104187012)
(8.35274028778 5.57312583923 79.2451477051)
(9.78953170776 -3.47421765327 69.9374313354)
(1.65740072727 9.91143226624 -73.1358947754)
(-9.8201379776 -2.30332612991 -65.461555481)
(9.94729423523 1.69315624237 -65.4801025391)
(9.66720199585 -2.82321453094 -65.4460449219)
(-3.1911611557 -9.68840026855 -65.4830932617)
(2.55341434479 -9.74761104584 -83.4685897827)
(-10.0202245712 1.13150179386 -83.46144104)
(2.05917334557 -9.89040756226 -75.6814956665)
(5.00967216492 -8.79663181305 -72.4477767944)
(7.76111316681 -6.38431024551 -73.1248626709)
(20.3143234253 -27.8922939301 -68.4381713867)
(-34.312587738 -3.64656996727 -68.4381713867)
(-1.6574048996 9.91143131256 74.2158966064)
(-9.94729423523 1.69315600395 66.5600967407)
(-9.66720199585 -2.82321596146 66.5260391235)
(-2.57478165627 -9.75456809998 66.5433349609)
(7.78930473328 -6.38328933716 66.5256958008)
(9.81238651276 2.2924144268 66.5314407349)
(10.0202245712 1.1315009594 84.5414352417)
(-2.55341529846 -9.74761199951 84.5485916138)
(34.3118400574 -3.65256357193 69.5239868164)
(-7.76111412048 -6.384308815 74.204864502)
(-20.3191337585 -27.8886432648 69.5239868164)
(9.17507457733 1.65298521519 65.5339355469)
(6.57554340363 -6.64323949814 65.5323791504)
(-5.73241710663 7.35214519501 85.5460662842)
(-9.17478942871 1.65293478966 -84.4663467407)
(5.73223924637 7.35191631317 -84.4663467407)
(-6.57554721832 6.64324331284 -64.4523849487)
(-9.1750793457 -1.65298676491 -64.4539413452)
(-3.3724591732 -8.80980300903 -64.4481430054)
(9.17507457733 1.65298557281 85.5460662842)
(-36.1954193115 -12.0131978989 -57.5534210205)
(-36.2980384827 -11.3666973114 -61.5150566101)
(-33.6578712463 -17.8908615112 -52.5947303772)
(-32.3994750977 -19.9276199341 -46.5266189575)
(-16.3117847443 -34.4821243286 -18.9850387573)
(-11.2161331177 -36.3320236206 -12.196015358)
(-0.832607269287 -38.1344337463 1.15880954266)
(-1.72091376781 -38.0367012024 -3.17493677139)
(-7.74067306519 -37.2445297241 -10.8104600906)
(8.50175857544 -37.0987663269 12.8683757782)
(15.8885450363 -34.6605911255 22.6247444153)
(25.3054542542 -28.5716304779 36.7864227295)
(31.5924243927 -21.2312870026 48.8460159302)
(35.6758613586 -13.5412225723 56.5892372131)
(31.0802135468 -22.148311615 44.3998222351)
(35.8973045349 -12.755613327 60.798992157)
(26.9027690887 -27.0948829651 36.2775154114)
(15.8295621872 -34.7226867676 19.3344230652)
(6.87058448792 -37.4525718689 7.63084936142)
(-17.431854248 -33.9142723083 -23.6353034973)
(9.27209091187 36.8901252747 -62.818271637)
(7.24490976334 37.4335594177 -57.080242157)
(-4.60821294785 37.8816719055 -45.258556366)
(2.91051411629 37.9250793457 -54.6913452148)
(-14.5367736816 35.270488739 -32.3714065552)
(-31.0068893433 22.2416820526 -5.83859920502)
(-35.6428604126 13.3493204117 6.79273891449)
(-38.112487793 2.10344266891 21.3694591522)
(-36.8914146423 9.58506298065 14.9559288025)
(-38.1075172424 0.521797597408 26.4725399017)
(-37.0266838074 -9.12431240082 35.4853401184)
(-34.3085250854 -16.5286426544 45.3112564087)
(-35.7220191956 -13.1838188171 43.9930381775)
(-33.7389526367 -17.5621871948 50.0054359436)
(-26.3613891602 -27.4364414215 62.418888092)
(-30.2326545715 -23.1553592682 55.1818580627)
(-2.62546777725 37.9680709839 -44.5660514832)
(-13.8815374374 35.5376167297 -30.0645713806)
(-32.6090888977 19.7882671356 1.15882253647)
(-37.4092178345 -6.99070978165 35.9544219971)
(-31.4430751801 -21.5358295441 55.7505340576)
(-33.6935119629 -37.0804595947 63.8289871216)
(-41.3844490051 -28.2391223907 52.6508369446)
(-39.0421714783 -31.2706317902 59.1498222351)
(-43.8727416992 -24.2819080353 51.0058326721)
(-47.1693458557 -17.165845871 40.8388748169)
(-47.5499610901 -15.4552783966 41.9291687012)
(-49.4101448059 -8.02705192566 34.6636161804)
(-49.840133667 -4.74737262726 28.6815395355)
(-50.0473327637 1.30505943298 25.6670894623)
(-49.859413147 4.63692951202 19.7426662445)
(-48.5027160645 12.6205568314 14.8629283905)
(-47.8932991028 14.5785923004 10.067032814)
(-45.8675575256 19.9263954163 7.33487081528)
(-41.973197937 27.7578430176 -3.73946547508)
(-42.2089271545 26.9388446808 -0.134940221906)
(-36.4533729553 34.3261184692 -9.14961051941)
(-32.3159713745 38.237651825 -17.373041153)
(-28.7499370575 40.9775276184 -18.852191925)
(-24.5788345337 43.624206543 -26.4029045105)
(-20.2331428528 45.8135643005 -28.220582962)
(-13.4597873688 48.282989502 -37.8639526367)
(-12.0398635864 48.5692520142 -36.4786224365)
(-2.83273077011 49.9940567017 -48.0920295715)
(8.94913291931 49.3670158386 -59.6016578674)
(-2.26102256775 50.1091270447 -46.002155304)
(9.37759590149 49.2243270874 -57.1415290833)
(18.8952198029 46.3339309692 -66.5913619995)
(22.3374576569 44.8074455261 -72.9655761719)
(-33.4756088257 -37.3185386658 66.9738311768)
(27.5004138947 -26.2788600922 -62.4955673218)
(28.7959403992 -24.9910736084 -57.0802726746)
(35.1105957031 -14.9500131607 -45.2585639954)
(31.6113586426 -21.1596298218 -54.1986083984)
(38.026638031 0.605451822281 -25.2698001862)
(37.8135261536 -5.04602050781 -32.3713989258)
(33.3741531372 18.3262424469 -2.1068277359)
(37.0287628174 9.57567691803 -14.0285549164)
(29.3822803497 24.1929645538 6.79274225235)
(20.8778896332 31.9546546936 21.3694458008)
(26.7466182709 27.1563682556 14.9559240341)
(19.505651474 32.7411766052 26.472536087)
(10.6114826202 36.6281967163 35.4853019714)
(2.84008526802 37.9763717651 45.3111991882)
(6.4434838295 37.528087616 43.9930419922)
(1.66016411781 37.9998855591 50.0054473877)
(-10.5799751282 36.5478515625 62.4189033508)
(-4.93678665161 37.759929657 55.1818389893)
(34.1940383911 -16.7103366852 -44.5660858154)
(37.717250824 -5.74703025818 -30.0645542145)
(37.4963264465 6.77703857422 -14.2808561325)
(33.4416847229 18.3461685181 1.15882372856)
(12.6504831314 35.8926849365 35.954410553)
(-2.72240042686 38.0374450684 55.5390663147)
(-15.2658414841 47.7196769714 63.8289642334)
(-3.76356244087 49.9595451355 52.6508293152)
(-7.56007623672 49.4468269348 59.1498222351)
(0.907603979111 50.1358604431 51.0058479309)
(8.71864891052 49.4327659607 40.8388404846)
(10.3902816772 48.907119751 41.9292030334)
(17.7534542084 46.8039627075 34.6636047363)
(20.808719635 45.5365104675 28.6815395355)
(26.1538619995 42.689743042 25.6671104431)
(28.9454231262 40.8610420227 19.7426452637)
(35.1810836792 35.6943054199 14.8629283905)
(39.7518310547 30.8503093719 5.66841411591)
(40.1905708313 29.7592353821 7.33482408524)
(44.4341888428 23.0845775604 -0.134944185615)
(46.4762458801 18.5599956512 -7.72704267502)
(47.9539680481 14.4065170288 -9.14957809448)
(49.2727622986 8.86762142181 -17.3730449677)
(49.8625488281 4.40942430496 -18.8521785736)
(50.0690879822 -0.526202857494 -26.4028987885)
(49.7922782898 -5.38435649872 -28.2205753326)
(48.5441818237 -12.484995842 -37.8639717102)
(48.0821342468 -13.8578147888 -36.47864151)
(44.7743034363 -22.4231090546 -48.007724762)
(39.9984321594 -30.0421028137 -56.5827598572)
(44.5262985229 -23.096446991 -46.0021400452)
(37.9407348633 -32.733379364 -57.1415061951)
(34.2714805603 -36.4868812561 -64.797164917)
(30.6787929535 -39.5306739807 -66.5913162231)
(30.8196525574 -39.4568328857 -69.1726150513)
(-15.5810022354 47.6499977112 66.9738388062)
(49.7922134399 -5.35459327698 69.071723938)
(47.2553863525 -16.7289047241 58.0002784729)
(46.6022453308 -18.1761932373 59.1498222351)
(42.7710800171 -26.1558952332 50.7441749573)
(42.1045341492 -27.2073287964 46.7000846863)
(37.15965271 -33.4518241882 41.92918396)
(31.6566791534 -38.7769355774 34.6635856628)
(28.6220588684 -41.0961990356 28.1701622009)
(38.2523880005 -32.4624824524 40.5401802063)
(23.8934249878 -43.9948043823 25.6670608521)
(18.4519767761 -46.5563049316 17.2107429504)
(13.3216199875 -48.314868927 14.8629131317)
(8.11502933502 -49.4542312622 6.92332267761)
(5.67696714401 -49.68567276 7.33482408524)
(-2.22525882721 -50.0234222412 -0.134938687086)
(-3.45506691933 -49.9509735107 -4.14137887955)
(-11.5005741119 -48.7326126099 -9.14957809448)
(-12.7472448349 -48.4239425659 -13.1279153824)
(-21.1126289368 -45.386932373 -18.8522109985)
(-23.8102111816 -44.1289710999 -24.487443924)
(-29.5591468811 -40.4291915894 -28.2205963135)
(-34.46484375 -36.3189811707 -37.0979728699)
(-36.042263031 -34.7114639282 -36.4786109924)
(-40.9140625 -28.7757740021 -46.6412696838)
(-42.2652587891 -27.0126838684 -46.0021362305)
(-44.6897163391 -22.6848278046 -53.4603843689)
(-47.3183059692 -16.4909572601 -57.1414985657)
(-48.6385917664 -11.9212465286 -64.3660430908)
(-49.57396698 -6.80326032639 -66.5913314819)
(49.0566101074 -10.3314590454 66.9738311768)
(7.98316907883 6.80831766129 -76.4956283569)
(7.24432516098 7.7842874527 -75.4086685181)
(8.97139644623 5.08061647415 -78.1803359985)
(1.91736662388 10.4371881485 -69.0407791138)
(2.02033543587 10.8589391708 -69.1602554321)
(0.19277215004 10.5549211502 -70.6144180298)
(-0.118239201605 10.2672567368 -70.615447998)
(7.90937900543 6.69305086136 -79.9185943604)
(9.60476493835 26.6982078552 -70.0610580444)
(12.4824485779 31.6540107727 -69.8760299683)
(12.9971389771 33.0922660828 -69.4817047119)
(13.0126829147 34.6402626038 -68.4643936157)
(12.8006944656 35.2627639771 -67.8126373291)
(12.5434350967 35.6548805237 -67.2645645142)
(12.1632738113 35.9810676575 -66.6201324463)
(7.48206806183 20.2675037384 -68.8521652222)
(13.7863254547 31.0957279205 -68.4632339478)
(14.1474666595 31.9367446899 -68.2966156006)
(14.3936767578 33.0245399475 -67.8468780518)
(14.3972120285 33.9165725708 -67.2587890625)
(14.1433010101 34.8224029541 -66.3770217896)
(13.5926961899 35.4682350159 -65.3385009766)
(-0.285560518503 -9.99592208862 -65.4599990845)
(-2.06132149696 -9.80287265778 -65.4610290527)
(-2.5421833992 -9.67146873474 -83.4599990845)
(-0.851598083973 -9.97679519653 -83.4639511108)
(-4.09312677383 -9.14045238495 -83.4555511475)
(-4.22940063477 -9.07818126678 -65.4642562866)
(-6.03498649597 -7.99217128754 -83.4609146118)
(-5.64443206787 -8.25471878052 -65.4599990845)
(-7.00475120544 -7.15824460983 -65.4577789307)
(-7.36741161346 -6.76174879074 -83.4599990845)
(-8.41408920288 -5.42730331421 -65.4558410645)
(-9.42623519897 -3.3944644928 -65.4620513916)
(-9.9534740448 -1.12233901024 -65.4595184326)
(-9.94602489471 1.19034349918 -65.4600219727)
(-9.42323970795 3.38657927513 -65.4564666748)
(-8.43350696564 5.40110063553 -65.4576416016)
(-7.36741161346 6.76174879074 -65.4599990845)
(-6.03498697281 7.9921708107 -65.4590911865)
(-5.64443206787 8.25471878052 -83.4599990845)
(-7.0031414032 7.15967559814 -83.4622879028)
(-4.22940015793 9.07818126678 -83.4557495117)
(-4.093126297 9.14045238495 -65.4644546509)
(-2.5421833992 9.67146873474 -83.4599990845)
(-1.99828481674 9.81098651886 -65.4555664062)
(-0.919931650162 9.97427082062 -83.459815979)
(0.289418876171 10.016497612 -65.463684082)
(2.54966711998 9.68331432343 -65.4563903809)
(4.65896558762 8.86706256866 -65.4595565796)
(6.57239770889 7.56047439575 -65.4609298706)
(7.74141597748 6.3301243782 -65.4599990845)
(8.73386383057 4.89747333527 -65.4565734863)
(9.62791633606 2.77172422409 -65.462600708)
(9.86279678345 1.74266922474 -83.4620513916)
(9.23091602325 3.87756705284 -83.4644393921)
(10.0027532578 0.496258765459 -65.464553833)
(10.0027532578 -0.49625658989 -83.4554519653)
(9.86279582977 -1.74267148972 -65.4579544067)
(9.74011898041 -2.26496767998 -83.4599990845)
(9.23850440979 -3.88235807419 -83.4556121826)
(9.2301864624 -3.87997031212 -65.4557952881)
(8.10699939728 -5.88979721069 -65.463684082)
(6.96937561035 -7.1713180542 -65.4599990845)
(5.6546087265 -8.26241111755 -65.4551315308)
(3.66939163208 -9.32067871094 -65.4598083496)
(1.40740191936 -9.91867637634 -65.46118927)
(8.10175895691 -5.88493585587 -83.4634246826)
(6.96937561035 -7.1713180542 -83.4599990845)
(5.64597892761 -8.27407169342 -83.4601364136)
(4.15415000916 -9.09632015228 -83.4599990845)
(2.5444586277 -9.68431568146 -83.4639511108)
(0.855750083923 -9.96331691742 -83.4599990845)
(8.41253566742 5.40640830994 -83.4599990845)
(7.39688873291 6.74832105637 -83.4641342163)
(5.71020507812 8.22878646851 -83.4611587524)
(3.67436218262 9.31834793091 -83.4605789185)
(1.42518723011 9.91591358185 -83.4591522217)
(-8.41216087341 5.42998456955 -83.464302063)
(-9.21123695374 3.89270114899 -83.4599990845)
(-9.75628089905 2.26982522011 -83.4601364136)
(-10.016699791 -0.0257754717022 -83.4602737427)
(-9.75268745422 -2.26713871956 -83.4642486572)
(-9.21123695374 -3.89270114899 -83.4599990845)
(-8.44022464752 -5.39192962646 -83.4617919922)
(1.84165585041 -10.1962127686 -79.9186401367)
(-0.417512625456 -10.1201267242 -78.1683807373)
(-0.0857452079654 -10.3097705841 -78.1803359985)
(-0.907957077026 -9.96459007263 -78.1650695801)
(0.165764570236 -10.551864624 -78.1726150513)
(8.37318992615 -7.15199518204 -69.1623382568)
(8.12493419647 -6.91897821426 -69.0650405884)
(7.84306812286 -6.67796707153 -68.7745819092)
(7.64999103546 -6.4787979126 -68.0936126709)
(8.99833297729 -5.33069086075 -70.6128616333)
(8.95758533478 -4.9149107933 -70.602104187)
(9.03584861755 -4.32932043076 -70.6438140869)
(21.1332530975 -26.5723438263 -69.8916168213)
(22.1601753235 -27.8019866943 -69.4817047119)
(23.4930114746 -28.5894489288 -68.4643936157)
(24.1381111145 -28.7171115875 -67.8126296997)
(24.6063041687 -28.6903762817 -67.2645797729)
(25.0788726807 -28.5242404938 -66.6201477051)
(13.8111276627 -16.6133899689 -68.8521652222)
(20.0365257263 -27.4871692657 -68.4632339478)
(20.5842990875 -28.2204380035 -68.2966156006)
(21.40325737 -28.9775619507 -67.8468704224)
(22.1739997864 -29.4266338348 -67.2587966919)
(23.0854244232 -29.659658432 -66.3770294189)
(23.9200363159 -29.5057430267 -65.3385162354)
(-9.75111484528 3.50322341919 -79.918510437)
(-8.88574504852 5.22909927368 -78.1803283691)
(-9.22107315063 5.13237524033 -78.1726150513)
(-10.3803777695 -3.67539310455 -69.1623306274)
(-10.0544548035 -3.57689189911 -69.0650177002)
(-9.54856300354 -3.39127969742 -68.4602890015)
(-9.42899990082 -3.38885235786 -68.0365829468)
(-9.31734275818 -5.10484933853 -70.6193389893)
(-8.88832759857 -5.2073931694 -70.6050949097)
(-8.25675678253 -5.66908025742 -70.6262893677)
(-26.3807888031 -5.03645801544 -70.1075057983)
(-33.6544189453 -5.01688861847 -69.8760223389)
(-35.1573104858 -5.29027891159 -69.4817047119)
(-36.5056991577 -6.05082368851 -68.4643859863)
(-36.9388008118 -6.54565811157 -67.8126373291)
(-37.1497459412 -6.96448850632 -67.2645874023)
(-37.2441329956 -7.47863721848 -66.5942611694)
(-21.2932491302 -3.65409255028 -68.8521652222)
(-33.8228607178 -3.60855674744 -68.4632339478)
(-34.7317695618 -3.71630764008 -68.2966079712)
(-35.7969360352 -4.04698419571 -67.8468704224)
(-36.5712165833 -4.48993444443 -67.2587890625)
(-37.228729248 -5.16273403168 -66.3770294189)
(-37.5127410889 -5.9624838829 -65.3385162354)
(-7.98312854767 6.80836391449 77.5755691528)
(-7.2442574501 7.78432178497 76.4885787964)
(-8.97139930725 5.08065891266 79.2603378296)
(-2.02034711838 10.8589677811 70.2402572632)
(-1.9173681736 10.4371843338 70.1207809448)
(-0.192881494761 10.5550518036 71.6944351196)
(0.118223205209 10.2672634125 71.6954498291)
(-7.90936756134 6.69304037094 80.9986190796)
(-25.5539550781 36.9046783447 80.6322555542)
(-26.1187133789 38.8243865967 80.1614990234)
(-26.1767520905 40.8080673218 79.2199172974)
(-25.5693759918 42.5005264282 77.8475036621)
(-24.6841754913 43.4691467285 76.6147003174)
(-9.60430145264 26.6974163055 71.1410903931)
(-12.4824714661 31.6540527344 70.9560317993)
(-12.9971342087 33.0922546387 70.5617141724)
(-13.012717247 34.6400756836 69.5445632935)
(-12.8007392883 35.2626419067 68.8927764893)
(-12.5436124802 35.6546516418 68.3449249268)
(-12.1677865982 35.9777603149 67.7072372437)
(-7.48177433014 20.2670040131 69.9321899414)
(-13.786283493 31.0956516266 69.5432510376)
(8.43350887299 5.40109825134 66.5376358032)
(7.36741161346 6.76174879074 66.5400009155)
(6.03499078751 7.99216794968 66.5390853882)
(5.64443206787 8.25471878052 84.5400009155)
(7.00314331055 7.15967321396 84.5422897339)
(4.22940063477 9.07818126678 84.5357513428)
(4.093126297 9.14045238495 66.5444488525)
(2.5421833992 9.67146873474 84.5400009155)
(1.99828064442 9.81098747253 66.5355606079)
(0.919928848743 9.97427082062 84.5398101807)
(-0.289420872927 10.016497612 66.5436782837)
(-2.54966855049 9.68331432343 66.5363922119)
(-4.65896558762 8.86706161499 66.5395507812)
(-6.57239723206 7.56047487259 66.5409240723)
(-7.74141597748 6.3301243782 66.5400009155)
(-8.73386287689 4.89747619629 66.536567688)
(-9.62791538239 2.77172756195 66.5426025391)
(-9.86279582977 1.74267375469 84.5420532227)
(-9.23091411591 3.87757062912 84.5444412231)
(-10.0027532578 0.496258556843 66.5445480347)
(-10.0027532578 -0.496256381273 84.5354537964)
(-9.8627948761 -1.74267601967 66.5379486084)
(-9.74011898041 -2.26496767998 84.5400009155)
(-9.23850345612 -3.88236188889 84.5356140137)
(-9.23018455505 -3.87997412682 66.5357894897)
(-8.1069984436 -5.88979816437 66.5436782837)
(-6.96937561035 -7.1713180542 66.5400009155)
(-5.65460824966 -8.26241207123 66.5351257324)
(-3.66939234734 -9.32067871094 66.5398101807)
(-1.4074037075 -9.91867542267 66.5411834717)
(0.285560518503 -9.99592208862 66.5400009155)
(2.0613181591 -9.80287361145 66.5410308838)
(2.5421833992 -9.67146873474 84.5400009155)
(0.851594626904 -9.97679615021 84.5439453125)
(4.09312725067 -9.14045238495 84.5355529785)
(4.2294011116 -9.07818126678 66.5442504883)
(6.03499031067 -7.99216842651 84.5409164429)
(5.64443206787 -8.25471878052 66.5400009155)
(7.00475406647 -7.15824127197 66.5377807617)
(7.36741161346 -6.76174879074 84.5400009155)
(8.41409111023 -5.42730045319 66.5358352661)
(9.42623615265 -3.39446306229 66.5420455933)
(9.9534740448 -1.12233841419 66.5395126343)
(9.94602489471 1.19034302235 66.5400238037)
(9.42324066162 3.3865776062 66.5364608765)
(8.44022655487 -5.3919262886 84.5417938232)
(9.21123695374 -3.89270114899 84.5400009155)
(9.75268745422 -2.26713728905 84.5442428589)
(10.0167007446 -0.0257732123137 84.5402755737)
(9.75628089905 2.26982235909 84.5401306152)
(9.21123695374 3.89270114899 84.5400009155)
(8.41216373444 5.42998027802 84.544303894)
(-8.41253566742 5.40640830994 84.5400009155)
(-7.39688777924 6.74832248688 84.5441360474)
(-5.71020460129 8.22878742218 84.5411605835)
(-3.67436289787 9.31834697723 84.5405807495)
(-1.42518901825 9.91591358185 84.5391540527)