/*--------------------------------*- C++ -*----------------------------------*\
| =========                 |                                                 |
| \\      /  F ield         | OpenFOAM: The Open Source CFD Toolbox           |
|  \\    /   O peration     | Version:  v2212                                 |
|   \\  /    A nd           | Website:  www.openfoam.com                      |
|    \\/     M anipulation  |                                                 |
\*---------------------------------------------------------------------------*/
FoamFile
{
    version     2.0;
    format      ascii;
    class       dictionary;
    object      setFieldsDict;
}
// * * * * * * * * * * * * * * * * * * * * * * * * * * * * * * * * * * * * * //

defaultFieldValues
(
    volScalarFieldValue alpha.liquid   1.0
    volScalarFieldValue alpha.gas      0.0
);

regions
(
    boxToCell
    {
        box (0 -0.04 0) (1 0.00 1);
        fieldValues
        (
            volScalarFieldValue alpha.liquid    0.0
            volScalarFieldValue alpha.gas       1.0

            // TODO: make a sperate file to initialize
            volScalarFieldValue Ssu             0.0
            volScalarFieldValue Saa             0.0
            volScalarFieldValue Sfa             0.0
            volScalarFieldValue Sva             0.0
            volScalarFieldValue Sbu             0.0
            volScalarFieldValue Spro            0.0
            volScalarFieldValue Sac             0.0
            volScalarFieldValue Sh2             0.0
            volScalarFieldValue Sch4            0.0
            volScalarFieldValue SIC             0.0
            volScalarFieldValue SIN             0.0
            volScalarFieldValue SI              0.0
            volScalarFieldValue Xc              0.0
            volScalarFieldValue Xch             0.0
            volScalarFieldValue Xpr             0.0
            volScalarFieldValue Xli             0.0
            volScalarFieldValue Xsu             0.0
            volScalarFieldValue Xaa             0.0
            volScalarFieldValue Xfa             0.0
            volScalarFieldValue Xc4             0.0
            volScalarFieldValue Xpro            0.0
            volScalarFieldValue Xac             0.0
            volScalarFieldValue Xh2             0.0
            volScalarFieldValue XI              0.0            
        );
    }

    // boxToCell
    // {
    //     box (0 -0.16 0) (1 -0.08 1);
    //     fieldValues
    //     (
    //         volScalarFieldValue Sac             0.12
    //     );
    // }

    // sphereToCell
    // {
    //     centre (0.02 -0.14 0.0001);
    //     radius 0.003;
    //     fieldValues
    //     (
    //         volScalarFieldValue alpha.liquid    0.0
    //         volScalarFieldValue alpha.gas       1.0
    //         // volScalarFieldValue T               298.15

    //         // // TODO: make a sperate file to initialize
    //         // volScalarFieldValue Ssu             0.0
    //         // volScalarFieldValue Saa             0.0
    //         // volScalarFieldValue Sfa             0.0
    //         // volScalarFieldValue Sva             0.0
    //         // volScalarFieldValue Sbu             0.0
    //         // volScalarFieldValue Spro            0.0
    //         // volScalarFieldValue Sac             0.0
    //         // volScalarFieldValue Sh2             0.0
    //         // volScalarFieldValue Sch4            0.0
    //         // volScalarFieldValue SIC             0.0
    //         // volScalarFieldValue SIN             0.0
    //         // volScalarFieldValue SI              0.0
    //         // volScalarFieldValue Xc              0.0
    //         // volScalarFieldValue Xch             0.0
    //         // volScalarFieldValue Xpr             0.0
    //         // volScalarFieldValue Xli             0.0
    //         // volScalarFieldValue Xsu             0.0
    //         // volScalarFieldValue Xaa             0.0
    //         // volScalarFieldValue Xfa             0.0
    //         // volScalarFieldValue Xc4             0.0
    //         // volScalarFieldValue Xpro            0.0
    //         // volScalarFieldValue Xac             0.0
    //         // volScalarFieldValue Xh2             0.0
    //         // volScalarFieldValue XI              0.0 
    //     );
    // }
);


// ************************************************************************* //
