/*--------------------------------*- C++ -*----------------------------------*\
  =========                 |
  \\      /  F ield         | OpenFOAM: The Open Source CFD Toolbox
   \\    /   O peration     | Website:  https://openfoam.org
    \\  /    A nd           | Version:  7  
     \\/     M anipulation  |
\*---------------------------------------------------------------------------*/
FoamFile
{
    version     2.0;
    format      ascii;
    class       dictionary;
    object      snappyHexMeshDict;
}

// * * * * * * * * * * * * * * * * * * * * * * * * * * * * * * * * * * * * * //

castellatedMesh true;
snap            true;
addLayers       true;

geometry
{
    //- Used to define MRF zone and refine mesh round the GeoShaft 
    MRF
    {
        type            searchableCone;
        point1          (0  0 -81);
        radius1         51;
        innerRadius1    39;
        point2          (0  0  80);
        radius2         51;
        innerRadius2    39;
        // type searchableCylinder;
        // point1 (0.0  0.0  -81);
        // point2 (0.0  0.0   81);
        // radius 51;
        // innerRadius 40;
    }

    GeoTank
    {
        type triSurfaceMesh;
        file "GeoTank.stl";
    }
    // GeoShaft
    // {
    //     type triSurfaceMesh;
    //     file "GeoShaft.stl";
    // }
}


castellatedMeshControls
{

    maxLocalCells 100000;
    maxGlobalCells 2000000;
    minRefinementCells 10;
    nCellsBetweenLevels 2;
    resolveFeatureAngle 30; // 90; 
    maxLoadUnbalance 0.10;

    features
    (
        {
            file "GeoTank.eMesh";
            level 2;
        }

        // {
        //     file "GeoShaft.eMesh";
        //     level 4;
        // }
    );

    refinementSurfaces
    {
        // MRF
        // {
        //     level (2 2);
        //     cellZone cellMRFzone;
        //     faceZone faceMRFzone;
        //     cellZoneInside inside;
        // }

        GeoTank
        {
            level (2 2);
        }

        // GeoShaft
        // {
        //     level (3 3);
        // }

    }

    refinementRegions
    {
        MRF
        {
            mode inside;
            level 2; // ((1E15 1));
        }
    }

    locationInMesh (20 20 20); // Inside point
    allowFreeStandingZoneFaces true;
}

// Settings for the snapping.
snapControls
{
    nSmoothPatch            3;
    tolerance               4.0;
    nSolveIter              30;
    nRelaxIter              10;
    nFeatureSnapIter        10;
    explicitFeatureSnap     true;
    implicitFeatureSnap     false;
    multiRegionFeatureSnap  false;
    nFaceSplitInterval      5;
}

// Settings for the layer addition.
addLayersControls
{
    layers
    {
        // MRF
        // {
        //     nSurfaceLayers 3;
        // }

        GeoTank
        {
            nSurfaceLayers 2;
        }

        // GeoShaft
        // {
        //     nSurfaceLayers 3;
        // }
    }

    relativeSizes           true;
    expansionRatio          1.5;
    finalLayerThickness     0.5;
    minThickness            0.2;
    nGrow                   0;

    featureAngle            60;
    slipFeatureAngle        30;
    nRelaxIter              5;
    nSmoothSurfaceNormals   1;
    nSmoothNormals          3;
    nSmoothThickness        10;
    maxFaceThicknessRatio   0.5;
    maxThicknessToMedialRatio 0.3;
    minMedianAxisAngle      90; // 60;
    nBufferCellsNoExtrude   0;

    nLayerIter              50;
    nRelaxedIter            20;
}

meshQualityControls
{
    #include "meshQualityDict"

    relaxed
    {
        maxNonOrtho 75;
    }
}

writeFlags
(
);

mergeTolerance 1E-6;


// ************************************************************************* //
