/*--------------------------------*- C++ -*----------------------------------*\
  =========                 |
  \\      /  F ield         | OpenFOAM: The Open Source CFD Toolbox
   \\    /   O peration     | Website:  https://openfoam.org
    \\  /    A nd           | Version:  7  
     \\/     M anipulation  |
\*---------------------------------------------------------------------------*/
FoamFile
{
    version     2.0;
    format      ascii;
    class       dictionary;
    object      snappyHexMeshDict;
}

// * * * * * * * * * * * * * * * * * * * * * * * * * * * * * * * * * * * * * //

castellatedMesh true;
snap            true;
addLayers       false;

geometry
{
    GeoShaft
    {
        type triSurfaceMesh;
        file "GeoShaft.stl";
    }
    GeoTank
    {
        type triSurfaceMesh;
        file "GeoTank.stl";
    }
    //- Used to define MRF zone and refine mesh round the GeoShaft 
    MRF
    {
        type searchableCylinder;
        point1 (0.0 -80  0.0);
        point2 (0.0  80  0.0);
        radius 50;
    }
}


castellatedMeshControls
{

    maxLocalCells 100000;

    maxGlobalCells 2000000;

    minRefinementCells 0;

    nCellsBetweenLevels 2;

    maxLoadUnbalance 0.10;

    features
    (
        {
            file "GeoTank.eMesh";
            level 0;
        }

        {
            file "GeoShaft.eMesh";
            level 1;
        }

    );

    resolveFeatureAngle 30;

    refinementSurfaces
    {
        MRF
        {
            level (1 1);
            cellZone cellMRFzone;
            faceZone faceMRFzone;
            cellZoneInside inside;
        }

        GeoShaft
        {
            level (1 1);
        }

        GeoTank
        {
            level (0 0);
        }
    }

    refinementRegions
    {
        MRF
        {
            mode inside;
            levels ((1E15 1));
        }
        
    }

    locationInMesh (0.0 0.1 0.0); // Inside point

    allowFreeStandingZoneFaces true;
}

// Settings for the snapping.
snapControls
{

    nSmoothPatch 3;

    tolerance 1.0;

    nSolveIter 300;

    nRelaxIter 10;

    nFeatureSnapIter 10;

    implicitFeatureSnap true;

    explicitFeatureSnap false;

    multiRegionFeatureSnap true;
}

// Settings for the layer addition.
addLayersControls
{

    relativeSizes true;

    layers
    {
    }

    expansionRatio 1.0;

    finalLayerThickness 0.3;

    minThickness 0.25;

    nGrow 0;

    featureAngle 30;

    nRelaxIter 5;

    nSmoothSurfaceNormals 1;

    nSmoothNormals 3;

    nSmoothThickness 10;

    maxFaceThicknessRatio 0.5;

    maxThicknessToMedialRatio 0.3;

    minMedianAxisAngle 90;

    nBufferCellsNoExtrude 0;

    nLayerIter 50;

    nRelaxedIter 20;
}

meshQualityControls
{
    #include "meshQualityDict"

    relaxed
    {
        maxNonOrtho 75;
    }
}

writeFlags
(
);

mergeTolerance 1E-6;


// ************************************************************************* //
