/*--------------------------------*- C++ -*----------------------------------*\
| =========                 |                                                 |
| \\      /  F ield         | OpenFOAM: The Open Source CFD Toolbox           |
|  \\    /   O peration     | Version:  v1912                                 |
|   \\  /    A nd           | Website:  www.openfoam.com                      |
|    \\/     M anipulation  |                                                 |
\*---------------------------------------------------------------------------*/
FoamFile
{
    version     2.0;
    format      ascii;
    class       dictionary;
    object      surfaceFeatureExtractDict;
}
// * * * * * * * * * * * * * * * * * * * * * * * * * * * * * * * * * * * * * //

GeoShaft.stl {
    extractionMethod            extractFromSurface;
    extractFromSurfaceCoeffs    { includedAngle 150; }
    
    subsetFeatures
    {
        // Keep nonManifold edges (edges with >2 connected faces)
        nonManifoldEdges       no;
        // Keep open edges (edges with 1 connected face)
        openEdges       yes;
    }
}

GeoTank.stl {
    extractionMethod            extractFromSurface;
    extractFromSurfaceCoeffs    { includedAngle 135; }
}


// ************************************************************************* //
