/*--------------------------------*- C++ -*----------------------------------*\
| =========                 |                                                 |
| \\      /  F ield         | OpenFOAM: The Open Source CFD Toolbox           |
|  \\    /   O peration     | Version:  2206                                  |
|   \\  /    A nd           | Website:  www.openfoam.com                      |
|    \\/     M anipulation  |                                                 |
\*---------------------------------------------------------------------------*/
FoamFile
{
    version     2.0;
    format      ascii;
    arch        "LSB;label=64;scalar=64";
    class       extendedFeatureEdgeMesh;
    location    "constant/extendedFeatureEdgeMesh";
    object      GeoShaft.extendedFeatureEdgeMesh;
}
// * * * * * * * * * * * * * * * * * * * * * * * * * * * * * * * * * * * * * //

// points

2715
(
(13.421909 35.547047 -65.102303)
(24.07369 -29.397238 -65.102303)
(-37.495598 -6.1498079 -65.102303)
(-24.07369 -29.397238 66.182304)
(4 6.7547327e-14 -85.459999)
(3.7587705 -1.3680806 -85.459999)
(3.0641778 -2.5711505 -85.459999)
(2.5711505 -3.0641778 -85.459999)
(1.3680806 -3.7587705 -85.459999)
(-2.4492937e-16 -4 -85.459999)
(-1.3680806 -3.7587705 -85.459999)
(-2.5711505 -3.0641778 -85.459999)
(-3.0641778 -2.5711505 -85.459999)
(-3.7587705 -1.3680806 -85.459999)
(-4 6.7057471e-14 -85.459999)
(-3.7587705 1.3680806 -85.459999)
(-3.0641778 2.5711505 -85.459999)
(-2.5711505 3.0641778 -85.459999)
(-1.3680806 3.7587705 -85.459999)
(-2.4492937e-16 4 -85.459999)
(1.3680806 3.7587705 -85.459999)
(2.5711505 3.0641778 -85.459999)
(3.0641778 2.5711505 -85.459999)
(3.7587705 1.3680806 -85.459999)
(17.803965 33.572884 -74.336723)
(15.878361 34.525307 -71.637199)
(15.123407 34.862617 -70.598259)
(20.172989 -32.205128 -74.336723)
(21.960611 -31.013716 -71.637199)
(-37.976952 -1.3677565 -74.336723)
(-37.83897 -3.5115888 -71.637199)
(-37.753616 -4.3340545 -70.598259)
(-20.172989 -32.205128 75.416725)
(-20.86828 -31.758997 74.378746)
(-21.960611 -31.013716 72.717209)
(-22.630211 -30.528564 71.678261)
(-13.421909 35.547047 66.182304)
(-17.803965 33.572884 75.416725)
(-17.069958 33.951962 74.378746)
(-15.878361 34.525307 72.717209)
(-15.123407 34.862617 71.678261)
(37.495598 -6.1498079 66.182304)
(37.976952 -1.3677565 75.416725)
(37.93824 -2.1929631 74.378746)
(37.83897 -3.5115888 72.717209)
(37.753616 -4.3340545 71.678261)
(9.1669254 3.9959574 -78.17231)
(1.8187529 9.8447237 -67.956413)
(3.8071845 9.2520018 -70.181923)
(7.662909 6.4923038 -80.591621)
(12.025809 36.043308 -66.431725)
(1.7910457 -9.8824263 -80.591621)
(-1.1228621 -9.9367695 -78.17231)
(7.6164045 -6.4974484 -67.956413)
(6.1087403 -7.9231973 -70.18177)
(7.6424384 -6.5177116 -68.160835)
(25.201515 -28.43631 -66.431725)
(-9.4539547 3.3901219 -80.591621)
(-8.0440636 5.9408116 -78.17231)
(-9.4351578 -3.3472757 -67.956413)
(-9.9162703 -1.3272768 -70.183678)
(-9.4657221 -3.3596897 -68.160835)
(-37.227325 -7.6069975 -66.431725)
(-9.1669254 3.9959574 79.252312)
(-1.8187529 9.8447237 69.036415)
(-3.8071845 9.2520018 71.261925)
(-7.662909 6.4923038 81.671616)
(-18.387627 33.26252 76.247108)
(-12.025809 36.043308 67.511726)
(9.4539547 3.3901219 81.671616)
(8.0440636 5.9408116 79.252312)
(9.4657221 -3.3596897 69.240829)
(9.4351578 -3.3472757 69.036415)
(9.9162703 -1.3272768 71.26368)
(38 -0.70710677 76.247108)
(37.227325 -7.6069975 67.511726)
(1.1228621 -9.9367695 79.252312)
(-7.6164045 -6.4974484 69.036415)
(-7.6424384 -6.5177116 69.240837)
(-1.7910457 -9.8824263 81.671616)
(-6.1087403 -7.9231973 71.261772)
(14.516267 35.125175 -69.767113)
(18.387627 33.26252 -75.167107)
(16.478287 34.248592 -72.46711)
(17.069958 33.951962 -73.298744)
(19.612373 -32.555412 -75.167107)
(21.421007 -31.394911 -72.46711)
(20.86828 -31.758997 -73.298744)
(-38 -0.70710677 -75.167107)
(-37.899296 -2.8536808 -72.46711)
(-37.93824 -2.1929631 -73.298744)
(-37.677429 -4.9911318 -69.767113)
(-25.201515 -28.43631 67.511726)
(-19.612373 -32.555412 76.247108)
(-21.421007 -31.394911 73.547104)
(-23.161161 -30.134045 70.847107)
(-16.478287 34.248592 73.547104)
(-14.516267 35.125175 70.847107)
(37.899296 -2.8536808 73.547104)
(37.677429 -4.9911318 70.847107)
(9.0621338 5.4340391 -78.17231)
(9.1025524 5.5130343 -78.17231)
(9.0293207 5.3514457 -78.17231)
(8.9844742 5.1791801 -78.17231)
(9.0304394 4.3934059 -78.17231)
(8.9874821 4.5986862 -78.17231)
(8.9646187 4.8024516 -78.17231)
(8.9635162 4.996851 -78.17231)
(1.8178086 9.8334007 -67.749809)
(3.5354502 9.354207 -69.711525)
(1.9418452 10.582808 -69.097374)
(1.925217 10.489412 -69.060356)
(2.1116054 11.038414 -69.165733)
(2.0538352 10.928782 -69.164162)
(2.005923 10.815392 -69.152138)
(1.9683955 10.69952 -69.129784)
(1.9097857 10.40156 -69.011665)
(1.8955784 10.319585 -68.952507)
(1.8826761 10.244146 -68.884453)
(1.8711084 10.175605 -68.809059)
(1.8608342 10.113899 -68.727531)
(1.8439616 10.010496 -68.550514)
(1.8315674 9.9321184 -68.359718)
(1.8232843 9.8774004 -68.160835)
(0.25371143 10.656087 -70.616951)
(0.22790761 10.61324 -70.617714)
(0.1787328 10.541988 -70.61776)
(0.12328792 10.475303 -70.617821)
(-0.0026704865 10.355646 -70.617973)
(-0.14664914 10.251583 -70.618202)
(-0.31060353 10.159826 -70.618538)
(-0.49295792 10.081228 -70.61898)
(-0.68828797 10.017824 -70.619576)
(-1.0928823 9.9401112 -70.621117)
(8.1284847 6.8787575 -79.705452)
(8.1991768 6.9381256 -79.667198)
(8.0619802 6.8230681 -79.754646)
(7.9998994 6.7712283 -79.813652)
(7.9426565 6.7235513 -79.881081)
(7.8905644 6.6802688 -79.955467)
(7.843586 6.6413226 -80.035698)
(7.7647018 6.5761094 -80.209526)
(7.7047958 6.5267406 -80.396599)
(7.629353 6.4647641 -80.994453)
(7.6379333 6.4717999 -80.791939)
(4.7976584 9.7183905 -75.176155)
(4.8419838 9.8007755 -75.167107)
(8.5057192 7.3077173 -79.586525)
(8.4399443 7.2040534 -79.591652)
(8.3663549 7.1071587 -79.606941)
(8.2857533 7.018096 -79.63221)
(6.255816 20.952425 -70.259209)
(12.25792 31.248762 -69.901466)
(12.454018 31.611233 -69.872856)
(12.624982 31.982075 -69.812126)
(12.769602 32.35812 -69.719795)
(12.886312 32.734692 -69.596962)
(12.974325 33.108494 -69.444725)
(13.032879 33.475567 -69.264626)
(13.061497 33.831474 -69.058907)
(13.06014 34.173496 -68.829201)
(13.028776 34.498932 -68.577187)
(12.967662 34.803917 -68.30558)
(12.87756 35.084648 -68.01783)
(12.759138 35.338959 -67.716179)
(12.613068 35.564682 -67.402901)
(12.440982 35.75869 -67.082024)
(12.244774 35.918678 -66.757423)
(7.8609929 20.907928 -68.824547)
(13.61038 30.777445 -68.48336)
(13.803312 31.133936 -68.455559)
(13.971655 31.498056 -68.396828)
(14.114437 31.866997 -68.307732)
(14.230682 32.237938 -68.188805)
(14.319033 32.606159 -68.041451)
(14.378743 32.967571 -67.867378)
(14.409549 33.319477 -67.667946)
(14.411182 33.659172 -67.444496)
(14.383592 33.982288 -67.19973)
(14.327147 34.285412 -66.936333)
(14.242268 34.566269 -66.656288)
(14.129377 34.822578 -66.36161)
(13.989581 35.051067 -66.055748)
(13.824097 35.24931 -65.741829)
(13.634198 35.415337 -65.422737)
(14.623288 35.069817 -66.726295)
(-0.28556052 -9.9959221 -65.459999)
(-1.4231484 -9.8982143 -65.459999)
(-2.5421834 -9.6714687 -83.459999)
(-1.4231484 -9.8982143 -83.459999)
(-2.5421834 -9.6714687 -65.459999)
(-3.628077 -9.3186407 -83.459999)
(-3.628077 -9.3186407 -65.459999)
(-4.6666732 -8.8443289 -83.459999)
(-4.6666732 -8.8443289 -65.459999)
(-5.6444321 -8.2547188 -83.459999)
(-5.6444321 -8.2547188 -65.459999)
(-6.5486073 -7.5574956 -83.459999)
(-6.5486073 -7.5574956 -65.459999)
(-7.3674116 -6.7617488 -83.459999)
(-7.3674116 -6.7617488 -65.459999)
(-8.0901699 -5.8778524 -65.459999)
(-8.7074604 -4.9173293 -65.459999)
(-9.211237 -3.8927011 -65.459999)
(-9.5949297 -2.8173256 -65.459999)
(-9.8535385 -1.7052219 -65.459999)
(-9.9836912 -0.5708881 -65.459999)
(-9.9836912 0.5708881 -65.459999)
(-9.8535385 1.7052219 -65.459999)
(-9.5949297 2.8173256 -65.459999)
(-9.211237 3.8927011 -65.459999)
(-8.7074604 4.9173293 -65.459999)
(-8.0901699 5.8778524 -65.459999)
(-7.3674116 6.7617488 -65.459999)
(-6.5486073 7.5574956 -83.459999)
(-7.3674116 6.7617488 -83.459999)
(-6.5486073 7.5574956 -65.459999)
(-5.6444321 8.2547188 -83.459999)
(-5.6444321 8.2547188 -65.459999)
(-4.6666732 8.8443289 -83.459999)
(-4.6666732 8.8443289 -65.459999)
(-3.628077 9.3186407 -83.459999)
(-3.628077 9.3186407 -65.459999)
(-2.5421834 9.6714687 -83.459999)
(-2.5421834 9.6714687 -65.459999)
(-1.4231484 9.8982143 -83.459999)
(-1.4231484 9.8982143 -65.459999)
(-0.28556052 9.9959221 -65.459999)
(0.85575008 9.9633169 -65.459999)
(1.9859047 9.8008261 -65.459999)
(3.0901699 9.5105648 -65.459999)
(4.15415 9.0963202 -65.459999)
(5.1639748 8.5634899 -65.459999)
(6.1064787 7.9190226 -65.459999)
(6.9693756 7.1713181 -65.459999)
(7.741416 6.3301244 -65.459999)
(8.4125357 5.4064083 -65.459999)
(8.9739847 4.4122109 -65.459999)
(9.4184437 3.3604939 -65.459999)
(9.740119 2.2649677 -83.459999)
(9.4184437 3.3604939 -83.459999)
(9.740119 2.2649677 -65.459999)
(9.9348173 1.1399142 -83.459999)
(9.9348173 1.1399142 -65.459999)
(10 6.4944645e-14 -83.459999)
(10 5.9400334e-14 -65.459999)
(9.9348173 -1.1399142 -83.459999)
(9.9348173 -1.1399142 -65.459999)
(9.740119 -2.2649677 -83.459999)
(9.740119 -2.2649677 -65.459999)
(9.4184437 -3.3604939 -83.459999)
(9.4184437 -3.3604939 -65.459999)
(8.9739847 -4.4122109 -65.459999)
(8.4125357 -5.4064083 -65.459999)
(7.741416 -6.3301244 -65.459999)
(6.9693756 -7.1713181 -65.459999)
(6.1064787 -7.9190226 -65.459999)
(5.1639748 -8.5634899 -65.459999)
(4.15415 -9.0963202 -65.459999)
(3.0901699 -9.5105648 -65.459999)
(1.9859047 -9.8008261 -65.459999)
(0.85575008 -9.9633169 -65.459999)
(8.9739847 -4.4122109 -83.459999)
(8.4125357 -5.4064083 -83.459999)
(7.741416 -6.3301244 -83.459999)
(6.9693756 -7.1713181 -83.459999)
(6.1064787 -7.9190226 -83.459999)
(5.1639748 -8.5634899 -83.459999)
(4.15415 -9.0963202 -83.459999)
(3.0901699 -9.5105648 -83.459999)
(1.9859047 -9.8008261 -83.459999)
(0.85575008 -9.9633169 -83.459999)
(-0.28556052 -9.9959221 -83.459999)
(8.9739847 4.4122109 -83.459999)
(8.4125357 5.4064083 -83.459999)
(7.741416 6.3301244 -83.459999)
(6.9693756 7.1713181 -83.459999)
(6.1064787 7.9190226 -83.459999)
(5.1639748 8.5634899 -83.459999)
(4.15415 9.0963202 -83.459999)
(3.0901699 9.5105648 -83.459999)
(1.9859047 9.8008261 -83.459999)
(0.85575008 9.9633169 -83.459999)
(-0.28556052 9.9959221 -83.459999)
(-8.0901699 5.8778524 -83.459999)
(-8.7074604 4.9173293 -83.459999)
(-9.211237 3.8927011 -83.459999)
(-9.5949297 2.8173256 -83.459999)
(-9.8535385 1.7052219 -83.459999)
(-9.9836912 0.5708881 -83.459999)
(-9.9836912 -0.5708881 -83.459999)
(-9.8535385 -1.7052219 -83.459999)
(-9.5949297 -2.8173256 -83.459999)
(-9.211237 -3.8927011 -83.459999)
(-8.7074604 -4.9173293 -83.459999)
(-8.0901699 -5.8778524 -83.459999)
(6.0175371 -9.0140772 -75.176155)
(6.0667286 -9.093668 -75.167107)
(2.075809 -11.020028 -79.586525)
(2.0189209 -10.911233 -79.591652)
(1.9718027 -10.799055 -79.606941)
(1.9349728 -10.684721 -79.63221)
(1.9090044 -10.569758 -79.667198)
(1.8929361 -10.478853 -79.705452)
(1.8779606 -10.393414 -79.754646)
(1.8641061 -10.31373 -79.813652)
(1.8514379 -10.240317 -79.881081)
(1.8400003 -10.173564 -79.955467)
(1.829761 -10.113406 -80.035698)
(1.8127269 -10.012484 -80.209526)
(1.7999253 -9.9359198 -80.396599)
(1.7857765 -9.850544 -80.791939)
(1.7839735 -9.8395958 -80.994453)
(-0.15435827 -10.261058 -78.17231)
(-0.0069351643 -10.370373 -78.17231)
(-0.32326439 -10.164813 -78.17231)
(-0.5111621 -10.082731 -78.17231)
(-0.71041852 -10.017293 -78.17231)
(0.11982782 -10.495344 -78.17231)
(0.17494896 -10.565058 -78.17231)
(0.2231517 -10.639559 -78.17231)
(7.6070704 -6.4909687 -67.749809)
(6.3332562 -7.7388935 -69.711525)
(8.1940575 -6.9730911 -69.097374)
(8.1214886 -6.9119925 -69.060356)
(8.5037441 -7.3479109 -69.165733)
(8.4376841 -7.2430639 -69.164162)
(8.3634424 -7.144876 -69.152138)
(8.2818584 -7.0544405 -69.129784)
(8.0531216 -6.854702 -69.011665)
(7.9892316 -6.8014097 -68.952507)
(7.9303517 -6.7525172 -68.884453)
(7.8767762 -6.7082286 -68.809059)
(7.828475 -6.6684785 -68.727531)
(7.7473626 -6.6021652 -68.550514)
(7.6856833 -6.5522432 -68.359718)
(8.9695883 -5.1755104 -70.617973)
(8.9514561 -4.9987898 -70.618202)
(9.0102348 -5.3444219 -70.617821)
(9.0402632 -5.4257812 -70.61776)
(9.0773821 -5.503994 -70.617714)
(9.1015863 -5.5477638 -70.616951)
(8.95397 -4.8109231 -70.618538)
(8.9770784 -4.6137013 -70.61898)
(9.0198336 -4.4128385 -70.619576)
(9.15483 -4.0235925 -70.621117)
(15.017424 -15.893908 -70.259209)
(20.933262 -26.240051 -69.901466)
(21.14912 -26.591112 -69.872856)
(21.384798 -26.924593 -69.812126)
(21.638153 -27.237858 -69.719795)
(21.90592 -27.52722 -69.596962)
(22.185635 -27.790342 -69.444725)
(22.474251 -28.024588 -69.264626)
(22.768169 -28.227325 -69.058907)
(23.065048 -28.397161 -68.829201)
(23.362564 -28.532719 -68.577187)
(23.657246 -28.632282 -68.30558)
(23.945417 -28.694618 -68.01783)
(24.224869 -28.719217 -67.716179)
(24.493385 -28.705578 -67.402901)
(24.747444 -28.653551 -67.082024)
(24.9841 -28.563623 -66.757423)
(14.176302 -17.261784 -68.824547)
(19.84886 -27.175657 -68.48336)
(20.061123 -27.520987 -68.455559)
(20.29229 -27.848837 -68.396828)
(20.540411 -28.15696 -68.307732)
(20.803532 -28.4431 -68.188805)
(21.078247 -28.703726 -68.041451)
(21.361382 -28.936142 -67.867378)
(21.65074 -29.138775 -67.667946)
(21.944105 -29.310036 -67.444496)
(22.23773 -29.447701 -67.19973)
(22.528463 -29.550379 -66.936333)
(22.814135 -29.6173 -66.656288)
(23.092548 -29.647688 -66.36161)
(23.360323 -29.640865 -66.055748)
(23.61475 -29.596674 -65.741829)
(23.853481 -29.51523 -65.422737)
(23.059708 -30.199047 -66.726295)
(-9.4237099 3.3787444 -80.791939)
(-9.4133263 3.3748314 -80.994453)
(-10.815134 -0.70430136 -75.17617)
(-10.908712 -0.70710677 -75.167107)
(-10.581529 3.7123106 -79.586525)
(-10.458865 3.7071795 -79.591652)
(-10.338158 3.6918964 -79.606941)
(-10.220726 3.6666248 -79.63221)
(-10.108182 3.631633 -79.667198)
(-10.021421 3.600096 -79.705452)
(-9.9399405 3.5703452 -79.754646)
(-9.864006 3.5425019 -79.813652)
(-9.7940941 3.5167665 -79.881081)
(-9.7305651 3.493295 -79.955467)
(-9.6733475 3.4720836 -80.035698)
(-9.5774288 3.4363744 -80.209526)
(-9.5047216 3.4091787 -80.396599)
(-9.2370825 5.1310186 -78.17231)
(-9.3257036 5.126524 -78.17231)
(-9.149148 5.143898 -78.17231)
(-8.9775391 5.1911926 -78.17231)
(-8.3200207 5.6238871 -78.17231)
(-8.4763203 5.484045 -78.17231)
(-8.6413546 5.3623619 -78.17231)
(-8.8091574 5.2642074 -78.17231)
(-9.4248791 -3.342432 -67.749809)
(-9.8687067 -1.6153138 -69.711525)
(-10.135902 -3.6097164 -69.097374)
(-10.046705 -3.577419 -69.060356)
(-10.61535 -3.6905031 -69.165733)
(-10.49152 -3.6857171 -69.164162)
(-10.369366 -3.6705155 -69.152138)
(-10.250255 -3.6450799 -69.129784)
(-9.9629078 -3.5468571 -69.011665)
(-9.8848124 -3.5181737 -68.952507)
(-9.8130293 -3.4916279 -68.884453)
(-9.7478867 -3.4673748 -68.809059)
(-9.6893101 -3.4454198 -68.727531)
(-9.5913248 -3.4083307 -68.550514)
(-9.5172501 -3.3798752 -68.359718)
(-8.966917 -5.1801357 -70.617973)
(-8.8048067 -5.2527933 -70.618202)
(-9.133522 -5.1308808 -70.617821)
(-9.218996 -5.1162071 -70.61776)
(-9.3052893 -5.1092463 -70.617714)
(-9.355298 -5.1083231 -70.616951)
(-8.6433668 -5.3489037 -70.618538)
(-8.4841223 -5.4675274 -70.61898)
(-8.3315468 -5.6049862 -70.619576)
(-8.0619478 -5.9165187 -70.621117)
(-21.273239 -5.0585165 -70.259209)
(-33.191181 -5.0087104 -69.901466)
(-33.603138 -5.0201206 -69.872856)
(-34.009781 -5.0574818 -69.812126)
(-34.407753 -5.1202602 -69.719795)
(-34.792233 -5.2074728 -69.596962)
(-35.159958 -5.3181524 -69.444725)
(-35.50713 -5.4509783 -69.264626)
(-35.829666 -5.6041498 -69.058907)
(-36.125187 -5.7763362 -68.829201)
(-36.391342 -5.9662151 -68.577187)
(-36.624908 -6.1716342 -68.30558)
(-36.822975 -6.3900309 -68.01783)
(-36.984005 -6.6197429 -67.716179)
(-37.106453 -6.8591042 -67.402901)
(-37.188423 -7.1051388 -67.082024)
(-37.228874 -7.3550529 -66.757423)
(-22.037294 -3.6461453 -68.824547)
(-33.45924 -3.6017876 -68.48336)
(-33.864437 -3.6129491 -68.455559)
(-34.263947 -3.6492202 -68.396828)
(-34.654846 -3.7100379 -68.307732)
(-35.034214 -3.794836 -68.188805)
(-35.397278 -3.9024341 -68.041451)
(-35.740124 -4.0314283 -67.867378)
(-36.060287 -4.1807041 -67.667946)
(-36.355289 -4.3491354 -67.444496)
(-36.621323 -4.5345893 -67.19973)
(-36.85561 -4.7350321 -66.936333)
(-37.0564 -4.9489698 -66.656288)
(-37.221924 -5.1748886 -66.36161)
(-37.349903 -5.4102011 -66.055748)
(-37.438847 -5.6526361 -65.741829)
(-37.487679 -5.900106 -65.422737)
(-37.682995 -4.8707695 -66.726295)
(-9.0621338 5.4340391 79.252312)
(-9.1025524 5.5130343 79.252312)
(-9.0293207 5.3514457 79.252312)
(-8.9844742 5.1791801 79.252312)
(-9.0304394 4.3934059 79.252312)
(-8.9874821 4.5986862 79.252312)
(-8.9646187 4.8024516 79.252312)
(-8.9635162 4.996851 79.252312)
(-1.9683955 10.69952 70.209778)
(-1.9418452 10.582808 70.177368)
(-2.005923 10.815392 70.232132)
(-2.0538352 10.928782 70.244171)
(-2.1116054 11.038414 70.245743)
(-1.925217 10.489412 70.140366)
(-1.9097857 10.40156 70.091667)
(-1.8955784 10.319585 70.032509)
(-1.8826761 10.244146 69.964462)
(-1.8711084 10.175605 69.889061)
(-1.8608342 10.113899 69.807533)
(-1.8439616 10.010496 69.630524)
(-1.8315674 9.9321184 69.439713)
(-1.8232843 9.8774004 69.240829)
(-1.8178086 9.8334007 68.829803)
(-3.5354502 9.354207 70.791534)
(-0.25371143 10.656087 71.696953)
(-0.22790761 10.61324 71.697716)
(-0.1787328 10.541988 71.697762)
(-0.12328792 10.475303 71.697823)
(0.0026704865 10.355646 71.697983)
(0.14664914 10.251583 71.698212)
(0.31060353 10.159826 71.69854)
(0.49295792 10.081228 71.69899)
(0.68828797 10.017824 71.69957)
(1.0928823 9.9401112 71.701126)
(-7.6379333 6.4717999 81.871941)
(-7.629353 6.4647641 82.074455)
(-4.7976584 9.7183905 76.256157)
(-4.8419838 9.8007755 76.247108)
(-8.5057192 7.3077173 80.666527)
(-8.4399443 7.2040534 80.671654)
(-8.3663549 7.1071587 80.686935)
(-8.2857533 7.018096 80.712212)
(-8.1991768 6.9381256 80.7472)
(-8.1284847 6.8787575 80.785454)
(-8.0619802 6.8230681 80.834648)
(-7.9998994 6.7712283 80.893661)
(-7.9426565 6.7235513 80.961082)
(-7.8905644 6.6802688 81.035469)
(-7.843586 6.6413226 81.115692)
(-7.7647018 6.5761094 81.289528)
(-7.7047958 6.5267406 81.476593)
(-25.089954 36.032455 80.666527)
(-26.171883 39.309544 79.964958)
(-26.042259 38.480644 80.267151)
(-26.201569 40.116714 79.587082)
(-26.130713 40.885727 79.141212)
(-25.960754 41.600925 78.636421)
(-25.695156 42.247746 78.083)
(-25.339327 42.813026 77.492203)
(-24.900505 43.285255 76.876053)
(-24.387627 43.654823 76.247108)
(-25.815336 37.646889 80.487511)
(-25.495733 36.825249 80.621544)
(-6.255816 20.952425 71.339218)
(-12.25792 31.248762 70.981476)
(-12.454018 31.611233 70.952858)
(-12.624982 31.982075 70.892136)
(-12.769602 32.35812 70.799797)
(-12.886312 32.734692 70.676964)
(-12.974325 33.108494 70.524727)
(-13.032879 33.475567 70.34462)
(-13.061497 33.831474 70.138901)
(-13.06014 34.173496 69.90921)
(-13.028776 34.498932 69.657181)
(-12.967662 34.803917 69.385582)
(-12.87756 35.084648 69.097832)
(-12.759138 35.338959 68.796181)
(-12.613068 35.564682 68.482903)
(-12.440982 35.75869 68.162025)
(-12.244774 35.918678 67.837418)
(-7.8609929 20.907928 69.904556)
(-13.61038 30.777445 69.56337)
(8.0901699 5.8778524 66.540001)
(7.3674116 6.7617488 66.540001)
(6.5486073 7.5574956 84.540001)
(7.3674116 6.7617488 84.540001)
(6.5486073 7.5574956 66.540001)
(5.6444321 8.2547188 84.540001)
(5.6444321 8.2547188 66.540001)
(4.6666732 8.8443289 84.540001)
(4.6666732 8.8443289 66.540001)
(3.628077 9.3186407 84.540001)
(3.628077 9.3186407 66.540001)
(2.5421834 9.6714687 84.540001)
(2.5421834 9.6714687 66.540001)
(1.4231484 9.8982143 84.540001)
(1.4231484 9.8982143 66.540001)
(0.28556052 9.9959221 66.540001)
(-0.85575008 9.9633169 66.540001)
(-1.9859047 9.8008261 66.540001)
(-3.0901699 9.5105648 66.540001)
(-4.15415 9.0963202 66.540001)
(-5.1639748 8.5634899 66.540001)
(-6.1064787 7.9190226 66.540001)
(-6.9693756 7.1713181 66.540001)
(-7.741416 6.3301244 66.540001)
(-8.4125357 5.4064083 66.540001)
(-8.9739847 4.4122109 66.540001)
(-9.4184437 3.3604939 66.540001)
(-9.740119 2.2649677 84.540001)
(-9.4184437 3.3604939 84.540001)
(-9.740119 2.2649677 66.540001)
(-9.9348173 1.1399142 84.540001)
(-9.9348173 1.1399142 66.540001)
(-10 -9.662342e-15 84.540001)
(-10 7.8055759e-16 66.540001)
(-9.9348173 -1.1399142 84.540001)
(-9.9348173 -1.1399142 66.540001)
(-9.740119 -2.2649677 84.540001)
(-9.740119 -2.2649677 66.540001)
(-9.4184437 -3.3604939 84.540001)
(-9.4184437 -3.3604939 66.540001)
(-8.9739847 -4.4122109 66.540001)
(-8.4125357 -5.4064083 66.540001)
(-7.741416 -6.3301244 66.540001)
(-6.9693756 -7.1713181 66.540001)
(-6.1064787 -7.9190226 66.540001)
(-5.1639748 -8.5634899 66.540001)
(-4.15415 -9.0963202 66.540001)
(-3.0901699 -9.5105648 66.540001)
(-1.9859047 -9.8008261 66.540001)
(-0.85575008 -9.9633169 66.540001)
(0.28556052 -9.9959221 66.540001)
(1.4231484 -9.8982143 66.540001)
(2.5421834 -9.6714687 84.540001)
(1.4231484 -9.8982143 84.540001)
(2.5421834 -9.6714687 66.540001)
(3.628077 -9.3186407 84.540001)
(3.628077 -9.3186407 66.540001)
(4.6666732 -8.8443289 84.540001)
(4.6666732 -8.8443289 66.540001)
(5.6444321 -8.2547188 84.540001)
(5.6444321 -8.2547188 66.540001)
(6.5486073 -7.5574956 84.540001)
(6.5486073 -7.5574956 66.540001)
(7.3674116 -6.7617488 84.540001)
(7.3674116 -6.7617488 66.540001)
(8.0901699 -5.8778524 66.540001)
(8.7074604 -4.9173293 66.540001)
(9.211237 -3.8927011 66.540001)
(9.5949297 -2.8173256 66.540001)
(9.8535385 -1.7052219 66.540001)
(9.9836912 -0.5708881 66.540001)
(9.9836912 0.5708881 66.540001)
(9.8535385 1.7052219 66.540001)
(9.5949297 2.8173256 66.540001)
(9.211237 3.8927011 66.540001)
(8.7074604 4.9173293 66.540001)
(8.0901699 -5.8778524 84.540001)
(8.7074604 -4.9173293 84.540001)
(9.211237 -3.8927011 84.540001)
(9.5949297 -2.8173256 84.540001)
(9.8535385 -1.7052219 84.540001)
(9.9836912 -0.5708881 84.540001)
(9.9836912 0.5708881 84.540001)
(9.8535385 1.7052219 84.540001)
(9.5949297 2.8173256 84.540001)
(9.211237 3.8927011 84.540001)
(8.7074604 4.9173293 84.540001)
(8.0901699 5.8778524 84.540001)
(-8.9739847 4.4122109 84.540001)
(-8.4125357 5.4064083 84.540001)
(-7.741416 6.3301244 84.540001)
(-6.9693756 7.1713181 84.540001)
(-6.1064787 7.9190226 84.540001)
(-5.1639748 8.5634899 84.540001)
(-4.15415 9.0963202 84.540001)
(-3.0901699 9.5105648 84.540001)
(-1.9859047 9.8008261 84.540001)
(-0.85575008 9.9633169 84.540001)
(0.28556052 9.9959221 84.540001)
(0.28556052 -9.9959221 84.540001)
(-0.85575008 -9.9633169 84.540001)
(-1.9859047 -9.8008261 84.540001)
(-3.0901699 -9.5105648 84.540001)
(-4.15415 -9.0963202 84.540001)
(-5.1639748 -8.5634899 84.540001)
(-6.1064787 -7.9190226 84.540001)
(-6.9693756 -7.1713181 84.540001)
(-7.741416 -6.3301244 84.540001)
(-8.4125357 -5.4064083 84.540001)
(-8.9739847 -4.4122109 84.540001)
(9.4237099 3.3787444 81.871941)
(9.4133263 3.3748314 82.074455)
(10.815134 -0.70430136 76.256172)
(10.908712 -0.70710677 76.247108)
(10.581529 3.7123106 80.666527)
(10.458865 3.7071795 80.671654)
(10.338158 3.6918964 80.686935)
(10.220726 3.6666248 80.712212)
(10.108182 3.631633 80.7472)
(10.021421 3.600096 80.785454)
(9.9399405 3.5703452 80.834648)
(9.864006 3.5425019 80.893661)
(9.7940941 3.5167665 80.961082)
(9.7305651 3.493295 81.035469)
(9.6733475 3.4720836 81.115692)
(9.5774288 3.4363744 81.289528)
(9.5047216 3.4091787 81.476593)
(9.2370825 5.1310186 79.252312)
(9.3257036 5.126524 79.252312)
(9.149148 5.143898 79.252312)
(8.9775391 5.1911926 79.252312)
(8.3200207 5.6238871 79.252312)
(8.4763203 5.484045 79.252312)
(8.6413546 5.3623619 79.252312)
(8.8091574 5.2642074 79.252312)
(10.250255 -3.6450799 70.209778)
(10.135902 -3.6097164 70.177368)
(10.369366 -3.6705155 70.232132)
(10.49152 -3.6857171 70.244171)
(10.61535 -3.6905031 70.245743)
(10.046705 -3.577419 70.140366)
(9.9629078 -3.5468571 70.091667)
(9.8848124 -3.5181737 70.032509)
(9.8130293 -3.4916279 69.964462)
(9.7478867 -3.4673748 69.889061)
(9.6893101 -3.4454198 69.807533)
(9.5913248 -3.4083307 69.630524)
(9.5172501 -3.3798752 69.439713)
(9.4248791 -3.342432 68.829803)
(9.8687067 -1.6153138 70.791534)
(8.966917 -5.1801357 71.697983)
(8.8048067 -5.2527933 71.698212)
(9.133522 -5.1308808 71.697823)
(9.218996 -5.1162071 71.697762)
(9.3052893 -5.1092463 71.697716)
(9.355298 -5.1083231 71.696953)
(8.6433668 -5.3489037 71.69854)
(8.4841223 -5.4675274 71.69899)
(8.3315468 -5.6049862 71.69957)
(8.0619478 -5.9165187 71.701126)
(43.75 3.7123106 80.666527)
(47.129005 3.0107436 79.964958)
(46.346344 3.3129368 80.267151)
(47.84288 2.6328659 79.587082)
(48.473434 2.1869962 79.141212)
(49.007835 1.6822107 78.636421)
(49.4352 1.1287855 78.083)
(49.74683 0.53798699 77.492203)
(49.936382 -0.07815811 76.876053)
(50 -0.70710677 76.247108)
(45.51083 3.5332932 80.487511)
(44.639469 3.6673274 80.621544)
(21.273239 -5.0585165 71.339218)
(33.191181 -5.0087104 70.981476)
(33.603138 -5.0201206 70.952858)
(34.009781 -5.0574818 70.892136)
(34.407753 -5.1202602 70.799797)
(34.792233 -5.2074728 70.676964)
(35.159958 -5.3181524 70.524727)
(35.50713 -5.4509783 70.34462)
(35.829666 -5.6041498 70.138901)
(36.125187 -5.7763362 69.90921)
(36.391342 -5.9662151 69.657181)
(36.624908 -6.1716342 69.385582)
(36.822975 -6.3900309 69.097832)
(36.984005 -6.6197429 68.796181)
(37.106453 -6.8591042 68.482903)
(37.188423 -7.1051388 68.162025)
(37.228874 -7.3550529 67.837418)
(22.037294 -3.6461453 69.904556)
(33.45924 -3.6017876 69.56337)
(0.15435827 -10.261058 79.252312)
(0.0069351643 -10.370373 79.252312)
(0.32326439 -10.164813 79.252312)
(0.5111621 -10.082731 79.252312)
(0.71041852 -10.017293 79.252312)
(-0.11982782 -10.495344 79.252312)
(-0.17494896 -10.565058 79.252312)
(-0.2231517 -10.639559 79.252312)
(-8.1214886 -6.9119925 70.140366)
(-8.1940575 -6.9730911 70.177368)
(-8.9514561 -4.9987898 71.698212)
(-8.95397 -4.8109231 71.69854)
(-9.1015863 -5.5477638 71.696953)
(-9.0773821 -5.503994 71.697716)
(-9.0402632 -5.4257812 71.697762)
(-9.0102348 -5.3444219 71.697823)
(-8.9695883 -5.1755104 71.697983)
(-8.9770784 -4.6137013 71.69899)
(-9.0198336 -4.4128385 71.69957)
(-9.15483 -4.0235925 71.701126)
(-7.6070704 -6.4909687 68.829803)
(-7.6856833 -6.5522432 69.439713)
(-7.7473626 -6.6021652 69.630516)
(-7.828475 -6.6684785 69.807533)
(-7.8767762 -6.7082286 69.889061)
(-7.9303517 -6.7525172 69.964462)
(-7.9892316 -6.8014097 70.032509)
(-8.0531216 -6.854702 70.091667)
(-1.7857765 -9.850544 81.871941)
(-1.7839735 -9.8395958 82.074455)
(-6.0175371 -9.0140772 76.256165)
(-6.0667286 -9.093668 76.247108)
(-2.075809 -11.020028 80.666527)
(-2.0189209 -10.911233 80.671654)
(-1.9718027 -10.799055 80.686935)
(-1.9349728 -10.684721 80.712212)
(-1.9090044 -10.569758 80.7472)
(-1.8929361 -10.478853 80.785454)
(-1.8779606 -10.393414 80.834648)
(-1.8641061 -10.31373 80.893661)
(-1.8514379 -10.240317 80.961082)
(-1.8400003 -10.173564 81.035469)
(-1.829761 -10.113406 81.115692)
(-1.8127269 -10.012484 81.289528)
(-1.7999253 -9.9359198 81.476593)
(-6.3332562 -7.7388935 70.791534)
(-8.5037441 -7.3479109 70.245743)
(-8.4376841 -7.2430639 70.244171)
(-8.3634424 -7.144876 70.232132)
(-8.2818584 -7.0544405 70.209778)
(-14.176302 -17.261784 69.904556)
(-20.061123 -27.520987 69.535561)
(-19.84886 -27.175657 69.56337)
(-20.29229 -27.848837 69.47683)
(-20.540411 -28.15696 69.387726)
(-20.803532 -28.4431 69.268806)
(-21.078247 -28.703726 69.121452)
(-21.361382 -28.936142 68.947388)
(-21.65074 -29.138775 68.747948)
(-21.944105 -29.310036 68.52449)
(-22.23773 -29.447701 68.279732)
(-22.528463 -29.550379 68.016335)
(-22.814135 -29.6173 67.736298)
(-23.092548 -29.647688 67.441612)
(-23.360323 -29.640865 67.13575)
(-23.61475 -29.596674 66.821831)
(-23.853481 -29.51523 66.502731)
(-23.059708 -30.199047 67.806297)
(-21.822336 -43.990242 77.222214)
(-22.515299 -44.083637 76.668785)
(-21.117979 -43.779831 77.726997)
(-20.416567 -43.456688 78.172867)
(-19.732378 -43.027393 78.550743)
(-19.07934 -42.500687 78.852936)
(-18.470747 -41.887287 79.073296)
(-17.918991 -41.199684 79.207329)
(-17.435299 -40.451874 79.252312)
(-23.18276 -44.058121 76.077988)
(-23.811134 -43.914204 75.461845)
(-24.387627 -43.654823 74.832893)
(-18.660046 -39.744766 80.666527)
(-8.9343796 -1.0848302 65.540001)
(-9 -1.1021821e-15 65.540001)
(-8.9343796 1.0848302 65.540001)
(-8.7384768 2.153841 65.540001)
(-8.4151459 3.1914439 65.540001)
(-7.9691043 4.1825085 65.540001)
(-7.4068546 5.1125827 65.540001)
(-6.7365966 5.9681039 65.540001)
(-5.9681039 6.7365966 65.540001)
(-5.1125827 7.4068546 65.540001)
(-4.1825085 7.9691043 65.540001)
(-3.1914439 8.4151459 65.540001)
(-2.153841 8.7384768 65.540001)
(-1.0848302 8.9343796 65.540001)
(5.5109107e-16 9 65.540001)
(1.0848302 8.9343796 65.540001)
(2.153841 8.7384768 65.540001)
(3.1914439 8.4151459 65.540001)
(4.1825085 7.9691043 65.540001)
(5.1125827 7.4068546 65.540001)
(5.9681039 6.7365966 65.540001)
(6.7365966 5.9681039 65.540001)
(7.4068546 5.1125827 65.540001)
(7.9691043 4.1825085 65.540001)
(8.4151459 3.1914439 65.540001)
(8.7384768 2.153841 65.540001)
(8.9343796 1.0848302 65.540001)
(9 0 65.540001)
(8.9343796 -1.0848302 65.540001)
(8.7384768 -2.153841 65.540001)
(8.4151459 -3.1914439 65.540001)
(7.9691043 -4.1825085 65.540001)
(7.4068546 -5.1125827 65.540001)
(6.7365966 -5.9681039 65.540001)
(5.9681039 -6.7365966 65.540001)
(5.1125827 -7.4068546 65.540001)
(4.1825085 -7.9691043 65.540001)
(3.1914439 -8.4151459 65.540001)
(2.153841 -8.7384768 65.540001)
(1.0848302 -8.9343796 65.540001)
(5.5109107e-16 -9 65.540001)
(-1.0848302 -8.9343796 65.540001)
(-2.153841 -8.7384768 65.540001)
(-3.1914439 -8.4151459 65.540001)
(-4.1825085 -7.9691043 65.540001)
(-5.1125827 -7.4068546 65.540001)
(-5.9681039 -6.7365966 65.540001)
(-6.7365966 -5.9681039 65.540001)
(-7.4068546 -5.1125827 65.540001)
(-7.9691043 -4.1825085 65.540001)
(-8.4151459 -3.1914439 65.540001)
(-8.7384768 -2.153841 65.540001)
(-8.9343796 1.0848302 85.540001)
(-9 -7.7796021e-15 85.540001)
(-8.9343796 -1.0848302 85.540001)
(-8.7384768 -2.153841 85.540001)
(-8.4151459 -3.1914439 85.540001)