/*--------------------------------*- C++ -*----------------------------------*\
| =========                 |                                                 |
| \\      /  F ield         | OpenFOAM: The Open Source CFD Toolbox           |
|  \\    /   O peration     | Version:  2206                                  |
|   \\  /    A nd           | Website:  www.openfoam.com                      |
|    \\/     M anipulation  |                                                 |
\*---------------------------------------------------------------------------*/
FoamFile
{
    version     2.0;
    format      ascii;
    arch        "LSB;label=64;scalar=64";
    class       extendedFeatureEdgeMesh;
    location    "constant/extendedFeatureEdgeMesh";
    object      GeoShaft.extendedFeatureEdgeMesh;
}
// * * * * * * * * * * * * * * * * * * * * * * * * * * * * * * * * * * * * * //

// points

10805
(
(-0.285561 -9.99592 -65.46)
(-1.42315 -9.89821 -83.46)
(-7.36741 -6.76175 -65.46)
(-8.09017 -5.87785 -65.46)
(-8.70746 -4.91733 -65.46)
(-9.21124 -3.8927 -65.46)
(-9.59493 -2.81733 -65.46)
(-9.85354 -1.70522 -65.46)
(-9.98369 -0.570888 -65.46)
(-9.98369 0.570888 -65.46)
(-9.85354 1.70522 -65.46)
(-9.59493 2.81733 -65.46)
(-9.21124 3.8927 -65.46)
(-8.70746 4.91733 -65.46)
(-8.09017 5.87785 -65.46)
(-7.36741 6.76175 -83.46)
(-1.42315 9.89821 -65.46)
(-0.285561 9.99592 -65.46)
(1.9859 9.80083 -65.46)
(3.09017 9.51056 -65.46)
(4.15415 9.09632 -65.46)
(5.16397 8.56349 -65.46)
(6.10648 7.91902 -65.46)
(6.96938 7.17132 -65.46)
(7.74142 6.33012 -65.46)
(8.41254 5.40641 -65.46)
(8.97398 4.41221 -65.46)
(9.41844 3.36049 -83.46)
(9.41844 -3.36049 -65.46)
(8.97398 -4.41221 -65.46)
(8.41254 -5.40641 -65.46)
(6.10648 -7.91902 -65.46)
(5.16397 -8.56349 -65.46)
(4.15415 -9.09632 -65.46)
(3.09017 -9.51056 -65.46)
(1.9859 -9.80083 -65.46)
(0.85575 -9.96332 -65.46)
(8.97398 -4.41221 -83.46)
(8.41254 -5.40641 -83.46)
(7.74142 -6.33012 -83.46)
(6.96938 -7.17132 -83.46)
(6.10648 -7.91902 -83.46)
(5.16397 -8.56349 -83.46)
(4.15415 -9.09632 -83.46)
(3.09017 -9.51056 -83.46)
(1.9859 -9.80083 -83.46)
(0.85575 -9.96332 -83.46)
(-0.285561 -9.99592 -83.46)
(8.97398 4.41221 -83.46)
(8.41254 5.40641 -83.46)
(7.74142 6.33012 -83.46)
(6.96938 7.17132 -83.46)
(4.15415 9.09632 -83.46)
(3.09017 9.51056 -83.46)
(1.9859 9.80083 -83.46)
(0.85575 9.96332 -83.46)
(-0.285561 9.99592 -83.46)
(-8.09017 5.87785 -83.46)
(-8.70746 4.91733 -83.46)
(-9.59493 2.81733 -83.46)
(-9.85354 1.70522 -83.46)
(-9.98369 0.570888 -83.46)
(-9.98369 -0.570888 -83.46)
(-9.85354 -1.70522 -83.46)
(-9.59493 -2.81733 -83.46)
(-9.21124 -3.8927 -83.46)
(-8.70746 -4.91733 -83.46)
(-8.09017 -5.87785 -83.46)
(8.09017 5.87785 66.54)
(7.36741 6.76175 84.54)
(1.42315 9.89821 66.54)
(0.285561 9.99592 66.54)
(-1.9859 9.80083 66.54)
(-3.09017 9.51056 66.54)
(-4.15415 9.09632 66.54)
(-5.16397 8.56349 66.54)
(-6.10648 7.91902 66.54)
(-6.96938 7.17132 66.54)
(-7.74142 6.33012 66.54)
(-8.41254 5.40641 66.54)
(-8.97398 4.41221 66.54)
(-9.41844 3.36049 84.54)
(-9.41844 -3.36049 66.54)
(-8.97398 -4.41221 66.54)
(-8.41254 -5.40641 66.54)
(-6.10648 -7.91902 66.54)
(-5.16397 -8.56349 66.54)
(-4.15415 -9.09632 66.54)
(-3.09017 -9.51056 66.54)
(-1.9859 -9.80083 66.54)
(-0.85575 -9.96332 66.54)
(0.285561 -9.99592 66.54)
(1.42315 -9.89821 84.54)
(7.36741 -6.76175 66.54)
(8.09017 -5.87785 66.54)
(8.70746 -4.91733 66.54)
(9.21124 -3.8927 66.54)
(9.59493 -2.81733 66.54)
(9.85354 -1.70522 66.54)
(9.98369 -0.570888 66.54)
(9.98369 0.570888 66.54)
(9.85354 1.70522 66.54)
(9.59493 2.81733 66.54)
(9.21124 3.8927 66.54)
(8.70746 4.91733 66.54)
(8.09017 -5.87785 84.54)
(8.70746 -4.91733 84.54)
(9.21124 -3.8927 84.54)
(9.59493 -2.81733 84.54)
(9.85354 -1.70522 84.54)
(9.98369 -0.570888 84.54)
(9.98369 0.570888 84.54)
(9.85354 1.70522 84.54)
(9.59493 2.81733 84.54)
(8.70746 4.91733 84.54)
(8.09017 5.87785 84.54)
(-8.97398 4.41221 84.54)
(-8.41254 5.40641 84.54)
(-7.74142 6.33012 84.54)
(-6.96938 7.17132 84.54)
(-4.15415 9.09632 84.54)
(-3.09017 9.51056 84.54)
(-1.9859 9.80083 84.54)
(-0.85575 9.96332 84.54)
(0.285561 9.99592 84.54)
(0.285561 -9.99592 84.54)
(-0.85575 -9.96332 84.54)
(-1.9859 -9.80083 84.54)
(-3.09017 -9.51056 84.54)
(-4.15415 -9.09632 84.54)
(-5.16397 -8.56349 84.54)
(-6.10648 -7.91902 84.54)
(-6.96938 -7.17132 84.54)
(-7.74142 -6.33012 84.54)
(-8.41254 -5.40641 84.54)
(-8.97398 -4.41221 84.54)
(4 6.75473e-14 -85.46)
(-4 6.70575e-14 -85.46)
(17.9498 33.4952 -74.5443)
(17.804 33.5729 -74.3367)
(16.1783 34.3858 -72.0528)
(16.1034 34.4209 -71.9489)
(15.9534 34.4907 -71.7411)
(15.728 34.5941 -71.4294)
(14.8955 34.9606 -70.2866)
(20.0328 -32.2925 -74.5443)
(20.173 -32.2051 -74.3367)
(21.7577 -31.1564 -71.9489)
(21.8254 -31.109 -71.845)
(22.0954 -30.9179 -71.4294)
(22.1626 -30.8697 -71.3255)
(22.829 -30.3802 -70.2866)
(-37.9825 -1.20263 -74.5443)
(-37.977 -1.36776 -74.3367)
(-37.8681 -3.18212 -72.0528)
(-37.8539 -3.34688 -71.845)
(-37.8465 -3.42924 -71.7411)
(-37.8152 -3.75852 -71.3255)
(-37.7245 -4.58041 -70.2866)
(-19.8922 -32.3793 75.8319)
(-20.0328 -32.2925 75.6243)
(-20.173 -32.2051 75.4167)
(-20.3128 -32.1171 75.2091)
(-21.7577 -31.1564 73.0289)
(-21.8254 -31.109 72.925)
(-21.9606 -31.0137 72.7172)
(-22.8951 -30.3304 71.2627)
(-22.6966 -30.4793 71.5744)
(-41.1159 -28.4565 54.4465)
(8.75712 49.2313 -57.8666)
(-18.0952 33.4168 75.8319)
(-18.0225 33.4561 75.7281)
(-17.8769 33.5341 75.5205)
(-17.7309 33.6115 75.3129)
(-17.6578 33.65 75.2091)
(-16.9222 34.0259 74.1712)
(-16.1034 34.4209 73.0289)
(-15.8784 34.5253 72.7172)
(-14.8194 34.9929 71.2627)
(-15.0475 34.8954 71.5744)
(-4.08605 49.8357 54.4465)
(38.257 -32.1996 -57.8666)
(37.9874 -1.03747 75.8319)
(37.9851 -1.12005 75.7281)
(37.9825 -1.20263 75.6243)
(37.9798 -1.28519 75.5205)
(37.977 -1.36776 75.4167)
(37.9739 -1.45031 75.3129)
(37.9706 -1.53286 75.2091)
(37.9672 -1.6154 75.1053)
(37.8611 -3.26451 73.0289)
(37.8539 -3.34688 72.925)
(37.839 -3.51159 72.7172)
(37.8312 -3.59392 72.6133)
(37.7145 -4.66249 71.2627)
(37.7441 -4.41619 71.5744)
(45.202 -21.3792 54.4465)
(-47.0141 -17.0318 -57.8666)
(6.01751 9.01403 -73.7438)
(5.93868 8.85214 -73.7085)
(1.78735 10.4457 -69.1486)
(4.84104 9.79902 -75.1672)
(6.06568 -9.09197 -75.1672)
(4.69684 -9.56912 -73.7085)
(4.79762 -9.71833 -73.7438)
(-10.9067 -0.707044 -75.1672)
(-10.8151 0.704301 -73.7438)
(-10.6355 0.716976 -73.7085)
(-6.01751 9.01403 74.8238)
(-5.93868 8.85214 74.7885)
(-1.78735 10.4457 70.2286)
(-4.84104 9.79902 76.2472)
(10.9067 -0.707044 76.2472)
(10.8151 0.704301 74.8238)
(10.6355 0.716976 74.7885)
(-4.69684 -9.56912 74.7885)
(-4.79762 -9.71833 74.8238)
(-6.06568 -9.09197 76.2472)
(13.7712 31.2279 -68.5164)
(13.9081 31.6864 -68.4939)
(20.1585 -27.5402 -68.5164)
(20.4872 -27.888 -68.4939)
(-33.9298 -3.6877 -68.5164)
(-34.3953 -3.79843 -68.4939)
(-20.1547 -27.5437 69.5912)
(-20.4834 -27.8916 69.5687)
(-13.7762 31.2263 69.5912)
(-13.9131 31.685 69.5687)
(33.9309 -3.68261 69.5912)
(34.3965 -3.79339 69.5687)
(8.67244 6.1136 -77.4951)
(9.06213 5.43404 -78.1723)
(9.10255 5.51303 -78.1723)
(8.81129 6.02759 -77.6628)
(8.49279 6.52575 -77.1379)
(8.26639 6.7157 -76.8421)
(8.14799 7.00608 -76.5991)
(7.82108 7.28946 -76.1692)
(7.77787 7.46718 -76.048)
(7.33826 7.83213 -75.4794)
(6.96606 8.32647 -74.9153)
(6.82033 8.34147 -74.7758)
(6.06568 9.09197 -73.7528)
(6.06673 9.09367 -73.7529)
(5.97509 8.93391 -73.729)
(6.77498 8.26576 -74.7571)
(7.29198 7.76112 -75.4586)
(7.7741 7.22317 -76.1466)
(8.21893 6.65414 -76.8177)
(8.62471 6.05678 -77.4691)
(9.02561 5.3676 -78.1622)
(9.02932 5.35145 -78.1723)
(8.98187 5.31458 -78.1307)
(8.98447 5.17918 -78.1723)
(8.94242 5.26043 -78.0957)
(8.90054 5.19339 -78.0486)
(8.5022 5.86566 -77.3586)
(8.47484 5.80531 -77.3169)
(8.07384 6.38288 -76.669)
(8.05382 6.31825 -76.6242)
(7.61712 6.86339 -75.9569)
(7.60549 6.79548 -75.9089)
(7.13572 7.30597 -75.2249)
(7.13351 7.23605 -75.1734)
(6.63395 7.71047 -74.4756)
(6.64507 7.62365 -74.4066)
(5.88849 8.21986 -73.3687)
(5.91324 8.15373 -73.3097)
(5.90851 8.76924 -73.6825)
(6.73535 8.18841 -74.7329)
(5.88489 8.68593 -73.651)
(6.70176 8.11003 -74.7034)
(5.8681 8.60326 -73.6146)
(6.66949 8.01412 -74.6608)
(5.85821 8.52176 -73.5735)
(6.65047 7.93609 -74.6206)
(5.85529 8.44195 -73.5279)
(6.63818 7.85907 -74.5761)
(5.85941 8.36446 -73.4782)
(6.63266 7.78366 -74.5276)
(5.87051 8.29025 -73.425)
(5.94456 8.09247 -73.2484)
(6.67857 7.51076 -74.3027)
(7.13988 7.15259 -75.1054)
(7.16602 7.04297 -75.0035)
(7.60193 6.64921 -75.7909)
(7.62103 6.54339 -75.6908)
(8.02881 6.11558 -76.4597)
(8.04125 6.01407 -76.3614)
(8.41877 5.55435 -77.1091)
(8.42499 5.45762 -77.0123)
(8.80468 4.90579 -77.8001)
(8.80454 4.81482 -77.7049)
(9.03044 4.39341 -78.1723)
(8.82054 4.72904 -77.6063)
(9.16693 3.99596 -78.1723)
(8.89837 4.56278 -77.5989)
(9.16956 3.98989 -78.1723)
(5.98209 8.03677 -73.1856)
(6.02555 7.98699 -73.1217)
(6.73188 7.41139 -74.1932)
(6.56845 7.54026 -73.7417)
(7.03294 7.10899 -74.4214)
(6.07468 7.94346 -73.0572)
(6.07757 7.94123 -73.0536)
(7.21141 6.94494 -74.8965)
(7.46918 6.64917 -75.0899)
(7.65872 6.44738 -75.5861)
(7.8754 6.16263 -75.7445)
(8.07156 5.92073 -76.2588)
(8.25 5.65133 -76.3825)
(8.44827 5.36756 -76.9117)
(8.59144 5.11733 -77.0015)
(8.98748 4.59869 -78.1723)
(8.81466 4.9726 -77.8646)
(8.42489 5.62603 -77.1744)
(8.03107 6.19144 -76.5259)
(7.60003 6.729 -75.8579)
(8.96462 4.80245 -78.1723)
(8.82856 5.02737 -77.9143)
(8.43608 5.68512 -77.2245)
(8.03954 6.2543 -76.5764)
(8.84758 5.08263 -77.9617)
(8.96352 4.99685 -78.1723)
(8.87161 5.13808 -78.0066)
(8.58137 5.99847 -77.4389)
(8.17617 6.59105 -76.7889)
(7.73215 7.1553 -76.1192)
(7.25106 7.68849 -75.4328)
(8.54267 5.93904 -77.4049)
(8.13839 6.52684 -76.7559)
(7.69552 7.08634 -76.0873)
(7.21583 7.6148 -75.402)
(8.09951 6.44775 -76.7103)
(7.63482 6.93225 -76.0016)
(7.14442 7.37771 -75.2732)
(8.45277 5.745 -77.2721)
(7.65853 7.00159 -76.0426)
(7.18104 7.52443 -75.3583)
(7.15955 7.45071 -75.3178)
(1.81781 9.8334 -67.7498)
(1.81784 9.83339 -67.7435)
(2.40539 9.7064 -68.393)
(1.81875 9.84472 -67.9564)
(2.80204 9.60478 -68.9898)
(2.74014 9.6385 -69.0581)
(3.75086 9.28996 -70.2463)
(3.69928 9.33499 -70.3091)
(4.50945 8.96802 -71.3067)
(4.46805 9.02083 -71.3653)
(5.07078 8.69139 -72.1337)
(5.03884 8.7494 -72.1889)
(5.62282 8.37842 -72.9558)
(5.60045 8.43969 -73.0075)
(2.97804 9.54628 -69.0495)
(3.53545 9.35421 -69.7115)
(3.80718 9.252 -70.1819)
(4.0772 9.13108 -70.3775)
(4.60687 8.88048 -71.1851)
(4.60286 8.87771 -71.0461)
(5.11189 8.59468 -71.7158)
(5.19692 8.54825 -71.9592)
(5.60369 8.28244 -72.3854)
(5.76378 8.17643 -72.7327)
(5.72111 8.21993 -72.7904)
(5.14994 8.59058 -72.0187)
(4.55571 8.92119 -71.2466)
(5.6834 8.26818 -72.8468)
(5.10791 8.63832 -72.0769)
(5.65055 8.32113 -72.9021)
(5.57788 8.53503 -73.0784)
(5.5685 8.61422 -73.1299)
(5.56647 8.69645 -73.1774)
(5.57182 8.78095 -73.2204)
(5.58458 8.86697 -73.2585)
(5.6112 8.97657 -73.2989)
(5.64038 9.0635 -73.3246)
(5.67632 9.14945 -73.3445)
(5.7187 9.23361 -73.3583)
(5.15896 9.72424 -72.6012)
(5.10248 9.64357 -72.5859)
(5.06133 9.55468 -72.5748)
(4.42127 9.91699 -71.805)
(4.38892 9.82154 -71.7898)
(3.52459 10.2211 -70.7961)
(3.50338 10.1188 -70.7768)
(2.42298 10.4908 -69.6012)
(2.41555 10.3545 -69.5695)
(1.94185 10.5828 -69.0974)
(1.92522 10.4894 -69.0604)
(4.46091 10.0105 -71.8132)
(4.19557 10.2613 -71.4482)
(3.59115 10.422 -70.8119)
(3.17891 10.7008 -70.3006)
(2.49755 10.8146 -69.6224)
(2.11161 11.0384 -69.1657)
(2.05384 10.9288 -69.1642)
(2.46412 10.7083 -69.6239)
(2.00592 10.8154 -69.1521)
(2.43916 10.5999 -69.6168)
(1.9684 10.6995 -69.1298)
(1.90979 10.4016 -69.0117)
(2.42016 10.249 -69.5352)
(3.48875 9.99067 -70.7419)
(3.48703 9.89101 -70.7062)
(4.34435 9.60415 -71.7305)
(4.33792 9.50967 -71.6938)
(4.97654 9.25687 -72.4943)
(4.96681 9.16654 -72.4569)
(1.89558 10.3196 -68.9525)
(2.43385 10.147 -69.4932)
(3.49395 9.79416 -70.6638)
(4.33967 9.41746 -71.6511)
(4.96489 9.0781 -72.4141)
(1.88268 10.2441 -68.8845)
(2.45635 10.0498 -69.4443)
(3.5093 9.70118 -70.6154)
(4.34949 9.32844 -71.6031)
(4.97071 8.99238 -72.3663)
(1.87111 10.1756 -68.8091)
(2.48733 9.95855 -69.3889)
(3.53292 9.61312 -70.5614)
(4.36727 9.24355 -71.5501)
(4.9842 8.91021 -72.3141)
(1.86083 10.1139 -68.7275)
(1.84396 10.0105 -68.5505)
(2.53865 9.85284 -69.3102)
(2.58133 9.78809 -69.2513)
(3.57467 9.50973 -70.4855)
(3.61076 9.44529 -70.4293)
(4.40126 9.14283 -71.4764)
(4.43187 9.07923 -71.4221)
(5.01239 8.81199 -72.2418)
(1.83157 9.93212 -68.3597)
(2.62949 9.73049 -69.1892)
(3.65244 9.3869 -70.3703)
(1.82328 9.8774 -68.1608)
(2.6826 9.68049 -69.1246)
(3.55396 10.3225 -70.8079)
(4.36417 9.72518 -71.7677)
(4.99994 9.37225 -72.5332)
(5.02704 9.46394 -72.5572)
(-1.09288 9.94011 -70.6211)
(-1.0994 9.93938 -70.6211)
(-0.350342 9.99386 -69.9253)
(-0.286928 10.0009 -69.9988)
(-0.224443 10.0173 -70.0717)
(0.454489 9.99508 -69.2869)
(0.521916 10.0079 -69.3614)
(1.18168 9.93582 -68.5604)
(1.25377 9.94448 -68.6366)
(0.386765 9.99252 -69.2116)
(1.11003 9.9382 -68.4833)
(1.36511 9.97959 -68.7518)
(1.47254 10.0404 -68.8597)
(1.57324 10.1252 -68.9575)
(1.66449 10.2316 -69.0425)
(1.71685 10.31 -69.0893)
(1.00057 10.5103 -69.8728)
(1.06056 10.6535 -69.9062)
(0.227908 10.6132 -70.6177)
(0.253711 10.6561 -70.617)
(1.85228 10.5933 -69.1811)
(0.199834 10.5171 -70.5816)
(0.178733 10.542 -70.6178)
(0.123288 10.4753 -70.6178)
(-0.00267049 10.3556 -70.618)
(0.148529 10.3896 -70.5173)
(0.93983 10.3784 -69.8108)
(0.109089 10.315 -70.4688)
(-0.146649 10.2516 -70.6182)
(0.0383829 10.2118 -70.3831)
(-0.310604 10.1598 -70.6185)
(-0.0420213 10.1265 -70.2868)
(-0.492958 10.0812 -70.619)
(-0.130291 10.0611 -70.1822)
(-0.688288 10.0178 -70.6196)
(0.624787 10.0477 -69.4742)
(0.722663 10.1112 -69.5805)
(0.813157 10.1966 -69.6776)
(0.894023 10.3017 -69.7631)
(8.12848 6.87876 -79.7055)
(8.19918 6.93813 -79.6672)
(8.67823 6.24293 -78.9047)
(8.21648 6.65941 -79.5315)
(8.06198 6.82307 -79.7546)
(8.1363 6.53295 -79.5927)
(7.9999 6.77123 -79.8137)
(7.94266 6.72355 -79.8811)
(8.09647 6.45207 -79.6391)
(7.89056 6.68027 -79.9555)
(8.05093 6.32292 -79.7249)
(7.84359 6.64132 -80.0357)
(7.7647 6.57611 -80.2095)
(8.02818 6.19644 -79.8229)
(7.7048 6.52674 -80.3966)
(8.02893 6.07599 -79.9306)
(8.05323 5.9647 -80.0453)
(8.36211 5.52123 -79.5191)
(8.38486 5.45864 -79.5922)
(8.66532 5.00086 -79.0791)
(8.49011 5.28375 -79.5312)
(8.8535 4.64925 -78.836)
(8.92069 4.52859 -78.5819)
(8.90587 4.5874 -78.5109)
(8.89898 4.6866 -78.4009)
(8.91279 4.79094 -78.2965)
(8.94695 4.89816 -78.1999)
(8.67431 5.38902 -78.6932)
(8.72561 5.50394 -78.6068)
(8.42389 5.98647 -79.1159)
(8.46504 6.06266 -79.0688)
(8.85024 5.6866 -78.4942)
(8.54646 6.18148 -79.0057)
(8.76789 5.57541 -78.559)
(8.08133 5.89 -80.254)
(8.08022 5.90065 -80.1196)
(7.66291 6.4923 -80.5916)
(7.62934 6.46476 -81.0007)
(7.62935 6.46476 -80.9945)
(7.63793 6.4718 -80.7919)
(8.3753 5.8644 -79.202)
(8.3484 5.74419 -79.2995)
(8.34394 5.62885 -79.4061)
(8.6436 5.27524 -78.7902)
(8.63428 5.16528 -78.8957)
(8.64664 5.0617 -79.0071)
(3.84263 9.23226 -75.8621)
(3.83853 9.23394 -75.8664)
(3.27377 9.44895 -75.1812)
(3.90489 9.21159 -75.7975)
(3.5842 9.34345 -75.3749)
(3.9697 9.19894 -75.7337)
(3.66907 9.33374 -75.2944)
(4.03667 9.19437 -75.671)
(3.73694 9.33535 -75.2332)
(4.10535 9.19795 -75.6097)
(3.80576 9.34499 -75.1739)
(4.17494 9.20964 -75.5508)
(3.87497 9.36268 -75.117)
(4.24484 9.22932 -75.4945)
(3.94401 9.38832 -75.0629)
(4.3146 9.25684 -75.4414)
(4.01231 9.42159 -75.0121)
(4.38372 9.29204 -75.3918)
(4.07929 9.46216 -74.965)
(4.45131 9.33448 -75.3463)
(4.14439 9.50969 -74.9219)
(4.51688 9.38379 -75.3052)
(4.20705 9.56386 -74.8834)
(4.58002 9.43965 -75.2689)
(4.28275 9.64215 -74.8411)
(4.6403 9.50174 -75.2375)
(4.338 9.70984 -74.8139)
(4.69697 9.56928 -75.2114)
(4.38922 9.78246 -74.792)
(4.74953 9.64165 -75.1909)
(4.436 9.8594 -74.7756)
(4.79766 9.71839 -75.1762)
(4.84098 9.79904 -75.1671)
(2.90702 9.57521 -74.5777)
(2.69296 9.63058 -74.5005)
(2.20763 9.75967 -73.7883)
(2.09658 9.77775 -73.8261)
(1.48513 9.88912 -73.1597)
(1.32852 9.91705 -72.8433)
(0.859152 9.96306 -72.5035)
(0.796793 9.97352 -72.2969)
(0.219241 9.9976 -71.8599)
(0.255055 10.0017 -71.7595)
(-0.296311 10.0003 -71.2327)
(-0.236343 10.0156 -71.1623)
(-0.801021 9.98507 -70.649)
(-0.856659 9.96759 -70.7185)
(-0.433961 9.99059 -71.2313)
(-0.145905 10.0564 -71.0553)
(-0.190586 10.0334 -71.1083)
(0.319147 10.0145 -71.688)
(-0.0207089 10.1547 -70.9055)
(-0.0607463 10.1172 -70.9537)
(-0.102548 10.0843 -71.0037)
(0.463786 10.0799 -71.5274)
(0.416665 10.0527 -71.5796)
(0.969132 10.0187 -72.1143)
(0.91731 9.9982 -72.1686)
(1.45587 9.93672 -72.713)
(1.40018 9.92404 -72.7695)
(2.28494 9.76086 -73.7122)
(0.0173583 10.1966 -70.8595)
(0.053249 10.2428 -70.8158)
(0.0867573 10.2929 -70.7747)
(0.635289 10.2392 -71.3388)
(0.672702 10.2904 -71.298)
(1.20699 10.2042 -71.8721)
(1.2483 10.2563 -71.8316)
(1.76791 10.1394 -72.4141)
(1.81312 10.1922 -72.374)
(2.69478 9.96416 -73.3509)
(2.74658 10.0178 -73.3113)
(3.43158 9.7619 -74.1329)
(3.48881 9.81596 -74.0937)
(0.125835 10.3625 -70.7264)
(0.716651 10.3617 -71.2503)
(1.29711 10.3292 -71.7846)
(1.86681 10.2665 -72.3277)
(2.80856 10.0941 -73.2665)
(3.55763 9.89341 -74.0502)
(0.1533 10.4209 -70.692)
(0.177864 10.4823 -70.6608)
(0.775894 10.485 -71.1866)
(0.800776 10.5513 -71.1602)
(1.36357 10.4559 -71.7228)
(1.3918 10.5241 -71.6977)
(1.94049 10.3962 -72.268)
(1.97207 10.4663 -72.2443)
(2.89455 10.2284 -73.2105)
(2.93184 10.3014 -73.1893)
(3.65382 10.031 -73.9975)
(3.69583 10.1061 -73.9786)
(0.199393 10.5464 -70.6331)
(0.228753 10.6133 -70.6184)
(0.845983 10.6196 -71.1587)
(1.45241 10.5925 -71.71)
(2.04758 10.5333 -72.2707)
(2.63107 10.4434 -72.8393)
(3.76151 10.1764 -73.9948)
(2.98839 9.57114 -74.4995)
(3.05285 9.57656 -74.4399)
(2.34564 9.76977 -73.6541)
(3.11775 9.58947 -74.382)
(2.40633 9.78562 -73.5975)
(1.51109 9.95566 -72.6579)
(3.18259 9.60986 -74.3263)
(2.46658 9.80837 -73.5429)
(1.56547 9.9808 -72.6045)
(1.01993 10.045 -72.0615)
(3.24688 9.6376 -74.2731)
(2.52596 9.83789 -73.4905)
(1.61867 10.012 -72.553)
(1.0694 10.0769 -72.0106)
(0.509454 10.1124 -71.477)
(3.31013 9.6724 -74.2229)
(2.58406 9.87389 -73.4409)
(1.67037 10.049 -72.504)
(1.11726 10.1143 -71.9619)
(0.553422 10.15 -71.4286)
(3.37186 9.71394 -74.176)
(2.64047 9.91609 -73.3942)
(1.72022 10.0916 -72.4576)
(1.16321 10.1568 -71.9156)
(0.595448 10.1923 -71.3824)
(3.60764 9.95993 -74.0214)
(2.85336 10.1592 -73.2362)
(1.90532 10.3295 -72.2959)
(1.33194 10.3908 -71.7519)
(0.747798 10.4217 -71.2167)
(0.864786 9.98357 -72.2242)
(0.368357 10.0309 -71.6332)
(7.23325 6.90508 -80.3812)
(7.28182 6.85702 -80.3096)
(7.33874 6.81846 -80.2391)
(7.40144 6.78742 -80.1701)
(7.46941 6.76407 -80.1031)
(6.98349 7.21396 -79.5467)
(7.05126 7.194 -79.4818)
(6.54053 7.61594 -78.9137)
(6.60769 7.59952 -78.8506)
(6.0744 7.99132 -78.274)
(6.14068 7.97842 -78.2125)
(5.58655 8.33848 -77.6298)
(5.65168 8.32903 -77.5698)
(5.07847 8.65578 -76.9834)
(5.14219 8.64968 -76.9248)
(4.61384 8.9388 -76.2798)
(4.6773 8.94265 -76.2243)
(6.81179 7.32117 -79.7509)
(6.8623 7.2766 -79.6817)
(6.92035 7.24154 -79.6135)
(6.36643 7.71159 -79.1119)
(6.41866 7.67118 -79.0449)
(6.47738 7.63986 -78.9786)
(5.89874 8.07495 -78.4665)
(5.95247 8.03909 -78.4015)
(6.01153 8.01157 -78.3372)
(5.41036 8.41 -77.817)
(5.46521 8.3788 -77.7539)
(5.52427 8.35508 -77.6913)
(4.903 8.71554 -77.1656)
(4.95839 8.68874 -77.1042)
(5.0171 8.6688 -77.0433)
(4.37844 8.99051 -76.5147)
(4.43362 8.96747 -76.4548)
(4.49163 8.95123 -76.3954)
(4.55181 8.94167 -76.337)
(4.74174 8.95328 -76.1709)
(4.83479 8.98023 -76.0989)
(4.90903 9.01132 -76.0456)
(4.98242 9.05051 -75.9967)
(5.05427 9.09744 -75.9525)
(5.12387 9.15175 -75.9137)
(5.206 9.22861 -75.8734)
(5.26849 9.29786 -75.8475)
(5.32679 9.3726 -75.8277)
(5.89555 9.06878 -76.4737)
(5.95338 9.14898 -76.4626)
(6.50698 8.81176 -77.111)
(6.8007 8.74066 -77.3935)
(7.68957 8.06745 -78.4999)
(5.38035 9.45216 -75.8144)
(5.84824 9.32042 -76.2787)
(4.84198 9.80078 -75.1671)
(8.50572 7.30772 -79.5865)
(7.54903 8.04159 -78.3994)
(7.03939 8.44209 -77.7574)
(6.44481 8.73115 -77.1197)
(5.8328 8.99368 -76.4916)
(5.76574 8.9244 -76.516)
(5.67796 8.848 -76.5551)
(5.60385 8.79451 -76.5935)
(5.52764 8.74883 -76.6375)
(5.45011 8.7113 -76.6867)
(5.37204 8.6823 -76.7405)
(5.27474 8.65858 -76.8137)
(5.20777 8.65059 -76.8681)
(8.03431 7.61191 -79.0349)
(8.43994 7.20405 -79.5917)
(7.95884 7.53163 -79.0355)
(8.36635 7.10716 -79.6069)
(7.87777 7.45759 -79.0447)
(8.28575 7.0181 -79.6322)
(7.79208 7.39068 -79.0623)
(7.6814 7.31924 -79.0956)
(8.02321 6.82328 -79.7461)
(7.58934 7.27154 -79.1314)
(7.12805 7.69553 -78.5053)
(7.21566 7.74507 -78.4688)
(6.64236 8.09185 -77.8721)
(6.72548 8.14296 -77.8349)
(6.13378 8.45877 -77.2341)
(6.2124 8.51118 -77.1963)
(7.926 6.78727 -79.7894)
(7.8291 6.76135 -79.8401)
(7.73378 6.74582 -79.8975)
(7.54201 6.74867 -80.0388)
(7.6186 6.74149 -79.9778)
(7.19822 7.1778 -79.3599)
(7.31044 7.18622 -79.2814)
(6.7517 7.58991 -78.7316)
(6.86052 7.60247 -78.6546)
(6.2813 7.97522 -78.0963)
(6.38649 7.99173 -78.0206)
(5.78848 8.33201 -77.4562)
(5.88983 8.35225 -77.3818)
(7.12303 7.18187 -79.4193)
(7.40271 7.2047 -79.225)
(7.49606 7.23325 -79.1748)
(6.67827 7.59079 -78.7897)
(6.94944 7.62389 -78.5988)
(7.03896 7.65502 -78.5489)
(7.32061 7.81826 -78.4339)
(7.4016 7.88618 -78.4144)
(7.47804 7.96091 -78.4028)
(6.20983 7.97301 -78.1531)
(6.47191 8.01588 -77.9656)
(6.55752 8.04938 -77.9159)
(6.82469 8.21754 -77.7986)
(6.901 8.28618 -77.7773)
(6.97284 8.36131 -77.7635)
(5.71916 8.32684 -77.5118)
(5.97163 8.37894 -77.3274)
(6.05324 8.41456 -77.278)
(6.30589 8.58683 -77.1585)
(6.37755 8.65591 -77.1356)
(4.85732 12.732 -73.6208)
(3.58654 13.4341 -72.0745)
(2.31003 14.1237 -70.5281)
(6.25582 20.9524 -70.2592)
(4.72287 18.2631 -70.3853)
(6.0048 17.5974 -71.9793)
(8.42306 21.7607 -71.8841)
(9.69816 21.0922 -73.5256)
(12.1186 25.2723 -73.478)
(18.3826 33.2539 -75.1671)
(13.3704 27.4342 -73.4534)
(14.6222 29.5961 -73.4288)
(12.092 28.0772 -71.7396)
(13.3427 30.2305 -71.6904)
(10.7964 28.6827 -70.0258)
(12.0443 30.8236 -69.952)
(12.2579 31.2488 -69.9015)
(12.6683 31.894 -69.915)
(12.454 31.6112 -69.8729)
(12.625 31.9821 -69.8121)
(9.54855 26.5418 -70.0997)
(7.13571 22.4025 -70.2425)
(12.7696 32.3581 -69.7198)
(13.2967 32.9721 -69.8778)
(14.5964 32.3888 -71.641)
(16.4738 34.2397 -72.4671)
(15.8755 31.7606 -73.4041)
(15.2481 30.6771 -73.4165)
(12.8863 32.7347 -69.597)
(12.9743 33.1085 -69.4447)
(13.0329 33.4756 -69.2646)
(13.0615 33.8315 -69.0589)
(13.0601 34.1735 -68.8292)
(13.0288 34.4989 -68.5772)
(12.9677 34.8039 -68.3056)
(12.8776 35.0846 -68.0178)
(13.2764 35.6015 -68.098)
(14.5123 35.116 -69.7671)
(12.7591 35.339 -67.7162)
(12.6131 35.5647 -67.4029)
(12.441 35.7587 -67.082)
(12.2448 35.9187 -66.7574)
(12.0258 36.0433 -66.4317)
(7.27774 16.9121 -73.5732)
(10.8413 25.924 -71.7888)
(13.9681 31.3071 -71.6657)
(4.23041 14.8888 -69.1419)
(7.44881 20.4133 -68.9509)
(7.86099 20.9079 -68.8245)
(10.4818 25.6196 -68.7708)
(13.6104 30.7774 -68.4834)
(12.9343 31.0134 -69.1925)
(6.86049 17.4657 -69.8893)
(8.39262 16.6216 -71.8211)
(10.7183 20.636 -71.7658)
(19.6074 32.5468 -73.7529)
(13.044 24.6504 -71.7106)
(14.3115 26.8382 -71.6805)
(12.78 27.6467 -69.6081)
(14.0475 29.8268 -69.5479)
(13.8033 31.1339 -68.4556)
(15.3151 32.0069 -69.4877)
(13.9717 31.4981 -68.3968)
(14.1144 31.867 -68.3077)
(14.2307 32.2379 -68.1888)
(14.5376 32.3795 -68.4214)
(14.319 32.6062 -68.0415)
(15.809 34.5516 -68.3529)
(14.3787 32.9676 -67.8674)
(14.4095 33.3195 -67.6679)
(14.4112 33.6592 -67.4445)
(14.3836 33.9823 -67.1997)
(14.6233 35.0698 -66.7263)
(14.3271 34.2854 -66.9363)
(14.2423 34.5663 -66.6563)
(14.1294 34.8226 -66.3616)
(13.9896 35.0511 -66.0557)
(13.8241 35.2493 -65.7418)
(13.6342 35.4153 -65.4227)
(13.4219 35.547 -65.1023)
(17.7365 33.6029 -71.0529)
(16.8464 31.2137 -71.6203)
(15.5789 29.0259 -71.6504)
(11.5124 25.4665 -69.6683)
(9.18643 21.4661 -69.7788)
(-1.12943 -9.93601 -78.1723)
(-0.497706 -9.98761 -77.5989)
(-1.42315 -9.89821 -65.46)
(-2.54218 -9.67147 -83.46)
(-2.54218 -9.67147 -65.46)
(-3.62808 -9.31864 -83.46)
(-3.62808 -9.31864 -65.46)
(-4.66667 -8.84433 -83.46)
(-4.66667 -8.84433 -65.46)
(-5.64443 -8.25472 -83.46)
(-5.64443 -8.25472 -65.46)
(-6.54861 -7.5575 -83.46)
(-6.54861 -7.5575 -65.46)
(-7.36741 -6.76175 -83.46)
(-8.05806 -5.9218 -70.6211)
(-8.47977 -5.30034 -69.9253)
(-8.84716 -4.66131 -69.2116)
(-9.16175 -4.00778 -68.4833)
(-9.42488 -3.3424 -67.7435)
(-9.60869 -2.77007 -68.393)
(-9.75633 -2.19408 -69.0495)
(-9.86871 -1.61531 -69.7115)
(-9.94635 -1.03458 -70.3775)
(-9.98975 -0.452662 -71.0461)
(-9.99916 0.129684 -71.7158)
(-9.97464 0.711718 -72.3854)
(-9.91609 1.29272 -73.0536)
(-9.81428 1.91832 -73.7417)
(-9.67304 2.53621 -74.4214)
(-9.49294 3.14391 -75.0899)
(-9.2747 3.73899 -75.7445)
(-9.0192 4.31904 -76.3825)
(-8.72746 4.88174 -77.0015)
(-8.40067 5.42483 -77.5989)
(-8.04012 5.94613 -78.1723)
(-7.36741 6.76175 -65.46)
(-6.54861 7.5575 -83.46)
(-6.54861 7.5575 -65.46)
(-5.64443 8.25472 -83.46)
(-5.64443 8.25472 -65.46)
(-4.66667 8.84433 -83.46)
(-4.66667 8.84433 -65.46)
(-3.62808 9.31864 -83.46)
(-3.62808 9.31864 -65.46)
(-2.54218 9.67147 -83.46)
(-2.54218 9.67147 -65.46)
(-1.42315 9.89821 -83.46)
(0.85575 9.96332 -65.46)
(9.41844 3.36049 -65.46)
(9.74012 2.26497 -83.46)
(9.74012 2.26497 -65.46)
(9.93482 1.13991 -83.46)
(9.93482 1.13991 -65.46)
(10 6.49446e-14 -83.46)
(10 5.94003e-14 -65.46)
(9.93482 -1.13991 -83.46)
(9.93482 -1.13991 -65.46)
(9.74012 -2.26497 -83.46)
(9.74012 -2.26497 -65.46)
(9.41844 -3.36049 -83.46)
(9.15746 -4.01758 -70.6211)
(8.83011 -4.69353 -69.9253)
(8.46039 -5.33121 -69.2116)
(8.05172 -5.93042 -68.4833)
(7.74142 -6.33012 -65.46)
(7.60704 -6.49098 -67.7435)
(7.2033 -6.93633 -68.393)
(6.96938 -7.17132 -65.46)
(6.7783 -7.35219 -69.0495)
(6.33326 -7.73889 -69.7115)
(5.86915 -8.0965 -70.3775)
(5.38689 -8.42505 -71.0461)
(4.88727 -8.72437 -71.7158)
(4.37096 -8.99415 -72.3854)
(3.83852 -9.23395 -73.0536)
(3.24583 -9.45857 -73.7417)
(2.6401 -9.6452 -74.4214)
(2.02376 -9.79308 -75.0899)
(1.39929 -9.90162 -75.7445)
(0.769201 -9.97037 -76.3825)
(0.136021 -9.99907 -77.0015)
(8.86909 -4.61947 -71.2313)
(8.54855 -5.18867 -71.8599)
(8.19868 -5.72558 -72.5035)
(7.82166 -6.23072 -73.1597)
(7.41949 -6.70457 -73.8261)
(6.99384 -7.14746 -74.5005)
(6.54614 -7.55964 -75.1812)
(6.07757 -7.94123 -75.8664)
(5.59679 -8.2871 -76.5147)
(5.09638 -8.60389 -77.1656)
(4.57809 -8.8905 -77.817)
(4.04375 -9.14593 -78.4665)
(3.49522 -9.36928 -79.1119)
(2.93443 -9.55977 -79.7509)
(2.36334 -9.71672 -80.3812)
(1.78397 -9.83959 -81.0007)
(1.06022 -9.94364 -80.254)
(0.330802 -9.99453 -79.5312)
(-0.400386 -9.99198 -78.836)
(6.10648 7.91902 -83.46)
(5.16397 8.56349 -83.46)
(-8.45312 5.34274 -78.836)
(-8.82092 4.71078 -79.5312)
(-9.21124 3.8927 -83.46)
(-9.14155 4.05364 -80.254)
(-9.41332 3.37483 -81.0007)
(-9.5966 2.81164 -80.3812)
(-9.74621 2.2386 -79.7509)
(-9.86165 1.6577 -79.1119)
(-9.94248 1.07098 -78.4665)
(-9.98845 0.480509 -77.817)
(-9.99938 -0.111648 -77.1656)
(-9.97523 -0.703413 -76.5147)
(-9.91609 -1.29271 -75.8664)
(-9.81991 -1.88931 -75.1812)
(-9.6868 -2.48312 -74.5005)
(-9.51607 -3.07318 -73.8261)
(-9.30679 -3.6584 -73.1597)
(-9.05784 -4.23748 -72.5035)
(-8.76779 -4.80893 -71.8599)
(-8.43513 -5.37112 -71.2313)
(6.06673 -9.09367 -75.1671)
(5.1476 -9.72493 -76.2787)
(5.49554 -9.38542 -75.8144)
(6.01754 -9.01408 -75.1762)
(4.94647 -9.73008 -76.4626)
(4.16928 -10.2599 -77.3935)
(4.37763 -10.0409 -77.111)
(3.14183 -10.6931 -78.4999)
(3.79128 -10.3171 -77.7574)
(3.18963 -10.5582 -78.3994)
(3.75455 -10.2189 -77.7635)
(3.15521 -10.4562 -78.4029)
(3.72539 -10.1189 -77.7774)
(3.12869 -10.3524 -78.4145)
(3.70411 -10.0183 -77.7988)
(3.11039 -10.2481 -78.4341)
(3.68927 -9.89592 -77.8349)
(3.09959 -10.1215 -78.4688)
(3.68657 -9.79832 -77.8722)
(3.1005 -10.0208 -78.5053)
(3.69222 -9.70355 -77.9159)
(3.10998 -9.92331 -78.5489)
(3.70603 -9.61261 -77.9657)
(3.1278 -9.83016 -78.5989)
(3.72786 -9.52652 -78.0208)
(3.15375 -9.74241 -78.6547)
(3.76609 -9.42737 -78.0963)
(3.1972 -9.6421 -78.7316)
(3.79998 -9.36426 -78.1532)
(3.23475 -9.57884 -78.7898)
(3.83933 -9.307 -78.2127)
(3.2777 -9.522 -78.8508)
(3.88374 -9.25599 -78.2744)
(3.3256 -9.47199 -78.9141)
(3.93282 -9.21163 -78.3376)
(3.37801 -9.42922 -78.9791)
(3.98602 -9.17442 -78.4018)
(3.43431 -9.3942 -79.0451)
(2.87079 -9.58112 -79.6819)
(2.29767 -9.73466 -80.3098)
(1.78397 -9.8396 -80.9945)
(2.07581 -11.02 -79.5865)
(2.57488 -10.7637 -79.0349)
(2.54305 -10.6579 -79.0355)
(2.51946 -10.5505 -79.0448)
(2.50439 -10.4426 -79.0625)
(2.49795 -10.3119 -79.0956)
(2.50268 -10.2083 -79.1315)
(2.51617 -10.1083 -79.1748)
(2.53815 -10.0131 -79.2251)
(2.56832 -9.92392 -79.2816)
(2.61705 -9.82274 -79.3599)
(2.65824 -9.75956 -79.4194)
(2.70473 -9.70338 -79.482)
(2.75601 -9.65462 -79.547)
(2.81159 -9.6137 -79.614)
(2.01892 -10.9112 -79.5917)
(1.9718 -10.7991 -79.6069)
(1.93497 -10.6847 -79.6322)
(1.909 -10.5698 -79.6672)
(1.89294 -10.4789 -79.7055)
(1.87796 -10.3934 -79.7546)
(1.89753 -10.3599 -79.7461)
(1.91498 -10.2576 -79.7895)
(1.94101 -10.1607 -79.8402)
(1.97525 -10.0703 -79.8977)
(2.029 -9.96864 -79.9778)
(2.0736 -9.9058 -80.0389)
(2.12334 -9.85055 -80.1033)
(2.17766 -9.80331 -80.1704)
(2.23601 -9.76452 -80.2396)
(1.86411 -10.3137 -79.8137)
(1.85144 -10.2403 -79.8811)
(1.84 -10.1736 -79.9555)
(1.82976 -10.1134 -80.0357)
(1.81273 -10.0125 -80.2095)
(1.79993 -9.93592 -80.3966)
(1.79105 -9.88243 -80.5916)
(1.78578 -9.85054 -80.7919)
(4.52383 -8.92229 -77.7541)
(4.47392 -8.9614 -77.6917)
(4.42829 -9.00707 -77.6301)
(4.38745 -9.05882 -77.57)
(4.35173 -9.11625 -77.5119)
(4.3215 -9.17898 -77.4562)
(4.2884 -9.27666 -77.382)
(4.27058 -9.36089 -77.3275)
(4.26061 -9.44943 -77.278)
(4.25861 -9.54133 -77.2341)
(4.2647 -9.63569 -77.1963)
(4.28331 -9.75368 -77.1588)
(4.3073 -9.85048 -77.1357)
(4.33885 -9.94656 -77.1198)
(5.04565 -8.63833 -77.1044)
(4.99917 -8.67902 -77.0437)
(4.9571 -8.72571 -76.9837)
(4.91987 -8.77792 -76.925)
(4.8878 -8.83525 -76.8682)
(4.86118 -8.89735 -76.8137)
(4.83312 -8.99328 -76.7406)
(4.81917 -9.07543 -76.6867)
(4.81289 -9.16138 -76.6375)
(4.81434 -9.25028 -76.5935)
(4.82361 -9.34126 -76.5551)