/*--------------------------------*- C++ -*----------------------------------*\
| =========                 |                                                 |
| \\      /  F ield         | OpenFOAM: The Open Source CFD Toolbox           |
|  \\    /   O peration     | Version:  2206                                  |
|   \\  /    A nd           | Website:  www.openfoam.com                      |
|    \\/     M anipulation  |                                                 |
\*---------------------------------------------------------------------------*/
FoamFile
{
    version     2.0;
    format      ascii;
    arch        "LSB;label=64;scalar=64";
    class       extendedFeatureEdgeMesh;
    location    "constant/extendedFeatureEdgeMesh";
    object      GeoTank.extendedFeatureEdgeMesh;
}
// * * * * * * * * * * * * * * * * * * * * * * * * * * * * * * * * * * * * * //

// points

104
(
(1.7223256 -16.111694 157.7926)
(0 -16.203491 157.7926)
(3.4251363 -15.837347 157.7926)
(5.089139 -15.383555 157.7926)
(6.6954799 -14.755463 157.7926)
(8.2259579 -13.960184 157.7926)
(9.6632328 -13.006731 157.7926)
(10.991019 -11.905907 157.7926)
(12.194274 -10.670183 157.7926)
(13.259361 -9.3135624 157.7926)
(14.174215 -7.8514156 157.7926)
(14.928471 -6.3003092 157.7926)
(15.513579 -4.6778173 157.7926)
(15.922914 -3.0023241 157.7926)
(16.151834 -1.2928134 157.7926)
(16.197748 0.43134537 157.7926)
(16.060137 2.1506169 157.7926)
(15.740556 3.845521 157.7926)
(15.242628 5.4968538 157.7926)
(14.571996 7.0859051 157.7926)
(13.736258 8.5946703 157.7926)
(12.744881 10.006055 157.7926)
(11.6091 11.304066 157.7926)
(10.341784 12.473998 157.7926)
(8.9572906 13.502595 157.7926)
(7.4713082 14.378201 157.7926)
(5.9006724 15.090898 157.7926)
(4.2631798 15.632607 157.7926)
(2.577384 15.997193 157.7926)
(0.86238503 16.180525 157.7926)
(-0.86238503 16.180525 157.7926)
(-2.577384 15.997193 157.7926)
(-4.2631798 15.632607 157.7926)
(-5.9006724 15.090898 157.7926)
(-7.4713082 14.378201 157.7926)
(-8.9572906 13.502595 157.7926)
(-10.341784 12.473998 157.7926)
(-11.6091 11.304066 157.7926)
(-12.744881 10.006055 157.7926)
(-13.736258 8.5946703 157.7926)
(-14.571996 7.0859051 157.7926)
(-15.242628 5.4968538 157.7926)
(-15.740556 3.845521 157.7926)
(-16.060137 2.1506169 157.7926)
(-16.197748 0.43134537 157.7926)
(-16.151834 -1.2928134 157.7926)
(-15.922914 -3.0023241 157.7926)
(-15.513579 -4.6778173 157.7926)
(-14.928471 -6.3003092 157.7926)
(-14.174215 -7.8514156 157.7926)
(-13.259361 -9.3135624 157.7926)
(-12.194274 -10.670183 157.7926)
(-10.991019 -11.905907 157.7926)
(-9.6632328 -13.006731 157.7926)
(-8.2259579 -13.960184 157.7926)
(-6.6954799 -14.755463 157.7926)
(-5.089139 -15.383555 157.7926)
(-3.4251363 -15.837347 157.7926)
(-1.7223256 -16.111694 157.7926)
(0 -9.3538332 -175.45874)
(-1.301802 -9.2628021 -175.45874)
(-0.65249044 9.331048 -175.45874)
(0.65249044 9.331048 -175.45874)
(1.301802 -9.2628021 -175.45874)
(1.9447713 9.1494293 -175.45874)
(2.5782659 -8.9914818 -175.45874)
(3.1991994 8.7897282 -175.45874)
(3.8045468 -8.5451517 -175.45874)
(4.3913589 8.2589445 -175.45874)
(4.9567766 -7.9325004 -175.45874)
(5.4980454 7.56741 -175.45874)
(6.0125284 -7.165452 -175.45874)
(6.4977188 6.7285848 -175.45874)
(6.9512529 -6.2589364 -175.45874)
(7.3709211 5.7587948 -175.45874)
(7.7546792 -5.230597 -175.45874)
(8.1006575 4.6769166 -175.45874)
(8.4071693 -4.1004505 -175.45874)
(8.6727228 3.5040076 -175.45874)
(8.8960238 -2.8904934 -175.45874)
(9.075985 2.262897 -175.45874)
(9.2117281 -1.6242762 -175.45874)
(9.3025923 0.97774184 -175.45874)
(9.348135 -0.32644409 -175.45874)
(-1.9447713 9.1494293 -175.45874)
(-2.5782659 -8.9914818 -175.45874)
(-3.1991994 8.7897282 -175.45874)
(-3.8045468 -8.5451517 -175.45874)
(-4.3913589 8.2589445 -175.45874)
(-4.9567766 -7.9325004 -175.45874)
(-5.4980454 7.56741 -175.45874)
(-6.0125284 -7.165452 -175.45874)
(-6.4977188 6.7285848 -175.45874)
(-6.9512529 -6.2589364 -175.45874)
(-7.3709211 5.7587948 -175.45874)
(-7.7546792 -5.230597 -175.45874)
(-8.1006575 4.6769166 -175.45874)
(-8.4071693 -4.1004505 -175.45874)
(-8.6727228 3.5040076 -175.45874)
(-8.8960238 -2.8904934 -175.45874)
(-9.075985 2.262897 -175.45874)
(-9.2117281 -1.6242762 -175.45874)
(-9.3025923 0.97774184 -175.45874)
(-9.348135 -0.32644409 -175.45874)
)

// edges

104
(
(0 1)
(2 0)
(3 2)
(4 3)
(5 4)
(6 5)
(7 6)
(8 7)
(9 8)
(10 9)
(11 10)
(12 11)
(13 12)
(14 13)
(15 14)
(16 15)
(17 16)
(18 17)
(19 18)
(20 19)
(21 20)
(22 21)
(23 22)
(24 23)
(25 24)
(26 25)
(27 26)
(28 27)
(29 28)
(30 29)
(31 30)
(32 31)
(33 32)
(34 33)
(35 34)
(36 35)
(37 36)
(38 37)
(39 38)
(40 39)
(41 40)
(42 41)
(43 42)
(44 43)
(45 44)
(46 45)
(47 46)
(48 47)
(49 48)
(50 49)
(51 50)
(52 51)
(53 52)
(54 53)
(55 54)
(56 55)
(57 56)
(58 57)
(1 58)
(59 60)
(61 62)
(63 59)
(62 64)
(65 63)
(64 66)
(67 65)
(66 68)
(69 67)
(68 70)
(71 69)
(70 72)
(73 71)
(72 74)
(75 73)
(74 76)
(77 75)
(76 78)
(79 77)
(78 80)
(81 79)
(80 82)
(83 81)
(82 83)
(84 61)
(60 85)
(86 84)
(85 87)
(88 86)
(87 89)
(90 88)
(89 91)
(92 90)
(91 93)
(94 92)
(93 95)
(96 94)
(95 97)
(98 96)
(97 99)
(100 98)
(99 101)
(102 100)
(103 102)
(101 103)
)

// concaveStart mixedStart nonFeatureStart
0 0 0
// internalStart flatStart openStart multipleStart
104 104 104 104
// normals

204
(
(0.030510975 -0.57245775 0.81936635)
(0 0 1)
(0.091206821 -0.56609981 0.81927549)
(0 0 1)
(0.15081287 -0.55301377 0.81940908)
(0 0 1)
(0.20886367 -0.53416672 0.81917146)
(0 0 1)
(0.26430602 -0.50864512 0.81940373)
(0 0 1)
(0.31695641 -0.47779332 0.81929981)
(0 0 1)
(0.36590105 -0.44134058 0.8193503)
(0 0 1)
(0.41070932 -0.39991788 0.81937998)
(0 0 1)
(0.45103895 -0.35411212 0.81924872)
(0 0 1)
(0.48592556 -0.30403991 0.81941203)
(0 0 1)
(0.51575719 -0.25079684 0.81920417)
(0 0 1)
(0.53923566 -0.19446107 0.81939599)
(0 0 1)
(0.55695368 -0.1360675 0.81932181)
(0 0 1)
(0.56824728 -0.076094114 0.81933187)
(0 0 1)
(0.5730315 -0.015259612 0.81939127)
(0 0 1)
(0.57165168 0.045755299 0.81921963)
(0.56327852 0.10620845 0.81941264)
(0 0 1)
(0.54904197 0.16555305 0.81923446)
(0 0 1)
(0.52813497 0.22289048 0.81938592)
(0 0 1)
(0.50150695 0.27779571 0.8193414)
(0 0 1)
(0.46917316 0.32955399 0.81931112)
(0 0 1)
(0.43139 0.37747319 0.81940018)
(0 0 1)
(0.38902877 0.42141128 0.81918811)
(0 0 1)
(0.34184181 0.46011957 0.81941086)
(0 0 1)
(0.29110509 0.49403131 0.81926241)
(0 0 1)
(0.23687806 0.5220306 0.81937344)
(0 0 1)
(0.18005423 0.54427191 0.81935863)
(0 0 1)
(0.12120291 0.56042586 0.81928793)
(0 0 1)
(0.060928648 0.5699652 0.81940672)
(0 0 1)
(-0 0.57357332 0.81915423)
(-0 0 1)
(-0.060928648 0.5699652 0.81940672)
(-0 0 1)
(-0.12120291 0.56042586 0.81928793)
(-0 0 1)
(-0.18005423 0.54427191 0.81935863)
(-0 0 1)
(-0.23687806 0.5220306 0.81937344)
(-0 0 1)
(-0.29110509 0.49403131 0.81926241)
(-0 0 1)
(-0.34184181 0.46011957 0.81941086)
(-0 0 1)
(-0.38902877 0.42141128 0.81918811)
(-0 0 1)
(-0.43139 0.37747319 0.81940018)
(-0 0 1)
(-0.46917316 0.32955399 0.81931112)
(-0 0 1)
(-0.50150695 0.27779571 0.8193414)
(-0 0 1)
(-0.52813497 0.22289048 0.81938592)
(-0 0 1)
(-0.54904197 0.16555305 0.81923446)
(-0 0 1)
(-0.56327852 0.10620845 0.81941264)
(-0 0 1)
(-0.57165168 0.045755299 0.81921963)
(-0 0 1)
(-0.5730315 -0.015259612 0.81939127)
(-0.56824728 -0.076094114 0.81933187)
(-0 0 1)
(-0.55695368 -0.1360675 0.81932181)
(-0 0 1)
(-0.53923566 -0.19446107 0.81939599)
(-0 0 1)
(-0.51575719 -0.25079684 0.81920417)
(-0 0 1)
(-0.48592556 -0.30403991 0.81941203)
(-0 0 1)
(-0.45103895 -0.35411212 0.81924872)
(-0 0 1)
(-0.41070932 -0.39991788 0.81937998)
(-0 0 1)
(-0.36590105 -0.44134058 0.8193503)
(-0 0 1)
(-0.31695641 -0.47779332 0.81929981)
(-0 0 1)
(-0.26430602 -0.50864512 0.81940373)
(-0 0 1)
(-0.20886367 -0.53416672 0.81917146)
(-0 0 1)
(-0.15081287 -0.55301377 0.81940908)
(-0 0 1)
(-0.091206821 -0.56609981 0.81927549)
(-0 0 1)
(-0.030510975 -0.57245775 0.81936635)
(-0 0 1)
(0 0 -1)
(-0.049304284 -0.7050825 -0.70740919)
(-0 0 -1)
(0 0.70674269 -0.70747069)
(-0 0 -1)
(0.049304284 -0.7050825 -0.70740919)
(-0 0 -1)
(0.098378114 0.69999488 -0.70733932)
(-0 0 -1)
(0.14694257 -0.69131152 -0.70745761)
(-0 0 -1)
(0.19480944 0.67938188 -0.70745286)
(-0 0 -1)
(0.24177021 -0.66425774 -0.70732512)
(-0 0 -1)
(0.28747952 0.64568948 -0.70741828)
(-0 0 -1)
(0.33179571 -0.62401708 -0.70747035)
(-0 0 -1)
(0.37455439 0.59941234 -0.70739936)
(-0 0 -1)
(0.41548222 -0.57186239 -0.70735277)
(-0 0 -1)
(0.45429119 0.54140337 -0.70746159)
(-0 0 -1)
(0.49096088 -0.50840495 -0.70744739)
(-0 0 -1)
(0.52533169 0.47301051 -0.70731017)
(-0 0 -1)
(0.5569557 -0.43514121 -0.70742666)
(-0 0 -1)
(0.58591737 0.39520641 -0.70746924)
(-0 0 -1)
(0.61212815 -0.35341222 -0.70738881)
(-0 0 -1)
(0.63531086 0.30986149 -0.70736551)
(-0 0 -1)
(0.65528581 -0.26475265 -0.70746487)
(-0 0 -1)
(0.67218014 0.21840504 -0.70744123)
(-0 0 -1)
(0.68592035 -0.17101966 -0.70729453)
(-0 0 -1)
(0.69604156 0.12273079 -0.70743431)
(-0 0 -1)
(0.70287437 -0.073874668 -0.70746742)
(0.70640537 0.02466797 -0.70737752)
(0 0 -1)
(-0.098378114 0.69999488 -0.70733932)
(0 0 -1)
(-0.14694257 -0.69131152 -0.70745761)
(0 0 -1)
(-0.19480944 0.67938188 -0.70745286)
(0 0 -1)
(-0.24177021 -0.66425774 -0.70732512)
(0 0 -1)
(-0.28747952 0.64568948 -0.70741828)
(0 0 -1)
(-0.33179571 -0.62401708 -0.70747035)
(0 0 -1)
(-0.37455439 0.59941234 -0.70739936)
(0 0 -1)
(-0.41548222 -0.57186239 -0.70735277)
(0 0 -1)
(-0.45429119 0.54140337 -0.70746159)
(0 0 -1)
(-0.49096088 -0.50840495 -0.70744739)
(0 0 -1)
(-0.52533169 0.47301051 -0.70731017)
(0 0 -1)
(-0.5569557 -0.43514121 -0.70742666)
(0 0 -1)
(-0.58591737 0.39520641 -0.70746924)
(0 0 -1)
(-0.61212815 -0.35341222 -0.70738881)
(0 0 -1)
(-0.63531086 0.30986149 -0.70736551)
(0 0 -1)
(-0.65528581 -0.26475265 -0.70746487)
(0 0 -1)
(-0.67218014 0.21840504 -0.70744123)
(0 0 -1)
(-0.68592035 -0.17101966 -0.70729453)
(0 0 -1)
(-0.69604156 0.12273079 -0.70743431)
(0 0 -1)
(-0.70640537 0.02466797 -0.70737752)
(-0.70287437 -0.073874668 -0.70746742)
)

// normal volume types

204
(
0
0
0
0
0
0
0
0
0
0
0
0
0
0
0
0
0
0
0
0
0
0
0
0
0
0
0
0
0
0
0
0
0
0
0
0
0
0
0
0
0
0
0
0
0
0
0
0
0
0
0
0
0
0
0
0
0
0
0
0
0
0
0
0
0
0
0
0
0
0
0
0
0
0
0
0
0
0
0
0
0
0
0
0
0
0
0
0
0
0
0
0
0
0
0
0
0
0
0
0
0
0
0
0
0
0
0
0
0
0
0
0
0
0
0
0
0
0
0
0
0
0
0
0
0
0
0
0
0
0
0
0
0
0
0
0
0
0
0
0
0
0
0
0
0
0
0
0
0
0
0
0
0
0
0
0
0
0
0
0
0
0
0
0
0
0
0
0
0
0
0
0
0
0
0
0
0
0
0
0
0
0
0
0
0
0
0
0
0
0
0
0
0
0
0
0
0
0
0
0
0
0
0
0
)

// normalDirections

104
(
2(1 -1)
2(1 -1)
2(1 -1)
2(1 -1)
2(1 -1)
2(1 -1)
2(1 -1)
2(1 -1)
2(1 -1)
2(1 -1)
2(1 -1)
2(1 -1)
2(1 -1)
2(1 -1)
2(1 -1)
2(1 -1)
2(1 -1)
2(1 -1)
2(1 -1)
2(1 -1)
2(1 -1)
2(1 -1)
2(1 -1)
2(1 -1)
2(1 -1)
2(1 -1)
2(1 -1)
2(1 -1)
2(1 -1)
2(1 -1)
2(1 -1)
2(1 -1)
2(1 -1)
2(1 -1)
2(1 -1)
2(1 -1)
2(1 -1)
2(1 -1)
2(1 -1)
2(1 -1)
2(1 -1)
2(1 -1)
2(1 -1)
2(1 -1)
2(1 -1)
2(1 -1)
2(1 -1)
2(1 -1)
2(1 -1)
2(1 -1)
2(1 -1)
2(1 -1)
2(1 -1)
2(1 -1)
2(1 -1)
2(1 -1)
2(1 -1)
2(1 -1)
2(1 -1)
2(1 -1)
2(1 -1)
2(1 -1)
2(1 -1)
2(1 -1)
2(1 -1)
2(1 -1)
2(1 -1)
2(1 -1)
2(1 -1)
2(1 -1)
2(1 -1)
2(1 -1)
2(1 -1)
2(1 -1)
2(1 -1)
2(1 -1)
2(1 -1)
2(1 -1)
2(1 -1)
2(1 -1)
2(1 -1)
2(1 -1)
2(1 -1)
2(1 -1)
2(1 -1)
2(1 -1)
2(1 -1)
2(1 -1)
2(1 -1)
2(1 -1)
2(1 -1)
2(1 -1)
2(1 -1)
2(1 -1)
2(1 -1)
2(1 -1)
2(1 -1)
2(1 -1)
2(1 -1)
2(1 -1)
2(1 -1)
2(1 -1)
2(1 -1)
2(1 -1)
)

// edgeNormals

104
(
2(0 1)
2(2 3)
2(4 5)
2(6 7)
2(8 9)
2(10 11)
2(12 13)
2(14 15)
2(16 17)
2(18 19)
2(20 21)
2(22 23)
2(24 25)
2(26 27)
2(28 29)
2(30 29)
2(31 32)
2(33 34)
2(35 36)
2(37 38)
2(39 40)
2(41 42)
2(43 44)
2(45 46)
2(47 48)
2(49 50)
2(51 52)
2(53 54)
2(55 56)
2(57 58)
2(59 60)
2(61 62)
2(63 64)
2(65 66)
2(67 68)
2(69 70)
2(71 72)
2(73 74)
2(75 76)
2(77 78)
2(79 80)
2(81 82)
2(83 84)
2(85 86)
2(87 86)
2(88 89)
2(90 91)
2(92 93)
2(94 95)
2(96 97)
2(98 99)
2(100 101)
2(102 103)
2(104 105)
2(106 107)
2(108 109)
2(110 111)
2(112 113)
2(114 115)
2(116 117)
2(118 119)
2(120 121)
2(122 123)
2(124 125)
2(126 127)
2(128 129)
2(130 131)
2(132 133)
2(134 135)
2(136 137)
2(138 139)
2(140 141)
2(142 143)
2(144 145)
2(146 147)
2(148 149)
2(150 151)
2(152 153)
2(154 155)
2(156 157)
2(158 159)
2(160 161)
2(160 162)
2(163 164)
2(165 166)
2(167 168)
2(169 170)
2(171 172)
2(173 174)
2(175 176)
2(177 178)
2(179 180)
2(181 182)
2(183 184)
2(185 186)
2(187 188)
2(189 190)
2(191 192)
2(193 194)
2(195 196)
2(197 198)
2(199 200)
2(201 202)
2(201 203)
)

// featurePointNormals
0()
// featurePointEdges
0()
// regionEdges
0()


// ************************************************************************* //
