/*--------------------------------*- C++ -*----------------------------------*\
| =========                 |                                                 |
| \\      /  F ield         | OpenFOAM: The Open Source CFD Toolbox           |
|  \\    /   O peration     | Version:  2206                                  |
|   \\  /    A nd           | Website:  www.openfoam.com                      |
|    \\/     M anipulation  |                                                 |
\*---------------------------------------------------------------------------*/
FoamFile
{
    version     2.0;
    format      ascii;
    arch        "LSB;label=64;scalar=64";
    class       extendedFeatureEdgeMesh;
    location    "constant/extendedFeatureEdgeMesh";
    object      GeoTank.extendedFeatureEdgeMesh;
}
// * * * * * * * * * * * * * * * * * * * * * * * * * * * * * * * * * * * * * //

// points

8697
(
(3.4077952 -62.853081 -121.86718)
(2.6302052 -65.267868 -119.4445)
(0 -65.320847 -119.4445)
(-2.6302052 -65.267868 -119.4445)
(0 -69.146126 -115.33356)
(-2.7842336 -69.090042 -115.33356)
(0 -72.835449 -111.10019)
(-2.9327877 -72.776375 -111.10019)
(0 -76.384895 -106.74887)
(-3.0757096 -76.322945 -106.74887)
(0 -79.79071 -102.28423)
(-3.2128479 -79.725998 -102.28423)
(0 -83.049263 -97.711014)
(-3.3440566 -82.981911 -97.711014)
(0 -86.157104 -93.034058)
(-3.4691968 -86.087227 -93.034058)
(0 -89.110931 -88.258347)
(-3.5881355 -89.038658 -88.258347)
(0 -91.907608 -83.388931)
(-3.7007463 -91.833069 -83.388931)
(0 -94.544167 -78.431)
(-3.8069098 -94.467491 -78.431)
(0 -97.017807 -73.389801)
(-3.9065132 -96.939125 -73.389801)
(0 -99.325905 -68.270699)
(-3.9994509 -99.245354 -68.270699)
(0 -101.46601 -63.079117)
(-4.0856242 -101.38372 -63.079117)
(0 -103.43585 -57.820572)
(-4.1649418 -103.35196 -57.820572)
(0 -105.23333 -52.500648)
(-4.237319 -105.14799 -52.500648)
(0 -106.85654 -47.124989)
(-4.3026795 -106.76989 -47.124989)
(0 -108.30378 -41.699299)
(-4.3609533 -108.21594 -41.699299)
(0 -109.57348 -36.229347)
(-4.4120793 -109.48462 -36.229347)
(0 -110.66431 -30.72093)
(-4.4560027 -110.57456 -30.72093)
(0 -111.57511 -25.179901)
(-4.4926767 -111.48463 -25.179901)
(0 -112.30492 -19.612143)
(-4.5220633 -112.21384 -19.612143)
(0 -112.85295 -14.023563)
(-4.5441303 -112.76143 -14.023563)
(0 -113.21863 -8.4200974)
(-4.5588546 -113.12681 -8.4200974)
(0 -113.40157 -2.8076928)
(-4.5662208 -113.30959 -2.8076928)
(0 -113.40157 2.8076928)
(-4.5662208 -113.30959 2.8076928)
(0 -113.21863 8.4200974)
(-4.5588546 -113.12681 8.4200974)
(0 -112.85295 14.023563)
(-4.5441303 -112.76143 14.023563)
(0 -112.30492 19.612143)
(-4.5220633 -112.21384 19.612143)
(0 -111.57511 25.179901)
(-4.4926767 -111.48463 25.179901)
(0 -110.66431 30.72093)
(-4.4560027 -110.57456 30.72093)
(0 -109.57348 36.229347)
(-4.4120793 -109.48462 36.229347)
(0 -108.30378 41.699299)
(-4.3609533 -108.21594 41.699299)
(0 -106.85654 47.124989)
(-4.3026795 -106.76989 47.124989)
(0 -105.23333 52.500648)
(-4.237319 -105.14799 52.500648)
(0 -103.43585 57.820572)
(-4.1649418 -103.35196 57.820572)
(0 -101.46601 63.079117)
(-4.0856242 -101.38372 63.079117)
(0 -99.325905 68.270699)
(-3.9994509 -99.245354 68.270699)
(0 -97.017807 73.389801)
(-3.9065132 -96.939125 73.389801)
(0 -94.544167 78.431)
(-3.8069098 -94.467491 78.431)
(0 -91.907608 83.388931)
(-3.7007463 -91.833069 83.388931)
(0 -89.110931 88.258347)
(-3.5881355 -89.038658 88.258347)
(0 -86.157104 93.034058)
(-3.4691968 -86.087227 93.034058)
(0 -83.049263 97.711014)
(-3.3440566 -82.981911 97.711014)
(0 -79.79071 102.28423)
(-3.2128479 -79.725998 102.28423)
(0 -76.384895 106.74887)
(-3.0757096 -76.322945 106.74887)
(0 -72.835449 111.10019)
(-2.9327877 -72.776375 111.10019)
(0 -69.146126 115.33356)
(-2.7842336 -69.090042 115.33356)
(0 -65.320847 119.4445)
(-2.6302052 -65.267868 119.4445)
(0 -61.363674 123.42863)
(-2.470866 -61.313908 123.42863)
(0 -57.278809 127.28175)
(-2.306385 -57.232353 127.28175)
(0 -53.070583 130.99973)
(-2.1369369 -53.027546 130.99973)
(0 -48.743473 134.57864)
(-1.9627018 -48.703941 134.57864)
(0 -44.302063 138.01469)
(-1.7838643 -44.266136 138.01469)
(-2.6957955 -39.840847 141.17776)
(5.2561445 -65.109032 -119.4445)
(6.8055944 -62.576408 -121.86718)
(7.873558 -64.844582 -119.4445)
(10.183432 -62.116188 -121.86718)
(10.478201 -64.47496 -119.4445)
(13.065847 -64.000755 -119.4445)
(13.831001 -67.748726 -115.33356)
(16.54775 -67.136864 -115.33356)
(17.430662 -70.718979 -111.10019)
(20.264093 -69.959763 -111.10019)
(21.251612 -73.36908 -106.74887)
(24.188652 -72.453857 -106.74887)
(25.267162 -75.684395 -102.28423)
(28.294174 -74.605606 -102.28423)
(29.449675 -77.652412 -97.711014)
(32.55254 -76.403618 -97.711014)
(33.770706 -79.262764 -93.034058)
(36.93491 -77.838669 -93.034058)
(38.201195 -80.507309 -88.258347)
(41.411915 -78.903809 -88.258347)
(42.711594 -81.380142 -83.388931)
(45.953804 -79.594322 -83.388931)
(47.272083 -81.877647 -78.431)
(50.530624 -79.907791 -78.431)
(51.852703 -81.998489 -73.389801)
(55.112396 -79.844093 -73.389801)
(56.423546 -81.743622 -68.270699)
(59.66927 -79.40538 -68.270699)
(60.954922 -81.116264 -63.079117)
(64.171707 -78.596077 -63.079117)
(65.417526 -80.121925 -57.820572)
(68.590652 -77.422844 -57.820572)
(69.782608 -78.76828 -52.500648)
(72.89769 -75.894539 -52.500648)
(74.022133 -77.065201 -47.124989)
(77.065201 -74.022133 -47.124989)
(78.108948 -75.024666 -41.699299)
(81.066544 -71.818687 -41.699299)
(82.01693 -72.66066 -36.229347)
(84.87616 -69.29924 -36.229347)
(85.721123 -69.989136 -30.72093)
(88.46978 -66.480728 -30.72093)
(89.197914 -67.027885 -25.179901)
(91.824516 -63.381889 -25.179901)
(92.425133 -63.796463 -19.612143)
(94.919006 -60.02314 -19.612143)
(95.382195 -60.316044 -14.023563)
(97.733521 -56.426476 -14.023563)
(98.050209 -56.609314 -8.4200974)
(100.25011 -52.615318 -8.4200974)
(100.4121 -52.700336 -2.8076928)
(102.45269 -48.614407 -2.8076928)
(102.45269 -48.614407 2.8076928)
(104.32711 -44.449627 2.8076928)
(104.15881 -44.377922 8.4200974)
(105.86126 -40.147881 8.4200974)
(105.51934 -40.018208 14.023563)
(107.04514 -35.736916 14.023563)
(106.52531 -35.563374 19.612143)
(107.87091 -31.24519 19.612143)
(107.16991 -31.042145 25.179901)
(108.33295 -26.701672 25.179901)
(107.44861 -26.483704 30.72093)
(108.42786 -22.135706 30.72093)
(107.35907 -21.917511 36.229347)
(108.15453 -17.576822 36.229347)
(106.90127 -17.373148 41.699299)
(107.51412 -13.054578 41.699299)
(106.07745 -12.880134 47.124989)
(106.51005 -8.5983801 47.124989)
(104.89209 -8.4677649 52.500648)
(105.14799 -4.237319 52.500648)
(103.35196 -4.1649418 57.820572)
(103.43585 -3.201111e-14 57.820572)
(101.46601 -3.4225755e-14 63.079117)
(101.38372 4.0856242 63.079117)
(99.245354 3.9994509 68.270699)
(99.003822 7.992415 68.270699)
(96.703209 7.8066902 73.389801)
(96.31044 11.694204 73.389801)
(93.854836 11.39604 78.431)
(93.319847 15.165951 78.431)
(90.71743 14.743017 83.388931)
(90.050217 18.383883 83.388931)
(87.310059 17.824476 88.258347)
(86.52153 21.325642 88.258347)
(83.653534 20.618744 93.034058)
(82.755455 23.970411 93.034058)
(79.770325 23.105755 97.711014)
(78.775253 26.299044 97.711014)
(75.684395 25.267162 102.28423)
(74.605606 28.294174 102.28423)
(71.42112 27.086458 106.74887)
(70.272537 29.940329 106.74887)
(67.007111 28.549063 111.10019)
(65.803215 31.224014 111.10019)
(62.470097 29.642429 115.33356)
(61.225853 32.133804 115.33356)
(57.838737 30.35611 119.4445)
(56.569511 32.660423 119.4445)
(53.142502 30.681837 123.42863)
(51.863968 32.796787 123.42863)
(48.41148 30.613565 127.28175)
(47.139534 32.538071 127.28175)
(43.676235 30.147528 130.99973)
(42.426895 31.881744 130.99973)
(38.967617 29.282265 134.57864)
(37.756935 30.827583 134.57864)
(34.316601 28.018637 138.01469)
(33.160572 29.377703 138.01469)
(29.855062 26.518591 141.17776)
(31.950758 30.689119 138.01469)
(27.996687 28.473598 141.17776)
(30.689119 31.950758 138.01469)
(29.377703 33.160572 138.01469)
(33.765789 35.153912 134.57864)
(32.322903 36.485012 134.57864)
(36.763287 38.274635 130.99973)
(35.192307 39.723904 130.99973)
(39.678425 41.309616 127.28175)
(37.982876 42.873802 127.28175)
(42.50811 44.25563 123.42863)
(40.691643 45.93137 123.42863)
(45.24934 47.109554 119.4445)
(43.315731 48.893356 119.4445)
(47.899204 49.868355 115.33356)
(45.85236 51.756615 115.33356)
(50.454887 52.529102 111.10019)
(48.298836 54.518112 111.10019)
(52.913677 55.088974 106.74887)
(50.652557 57.174915 106.74887)
(55.272964 57.545254 102.28423)
(52.911026 59.724201 102.28423)
(57.530247 59.895332 97.711014)
(55.071846 62.163265 97.711014)
(59.683125 62.136715 93.034058)
(57.132729 64.489517 93.034058)
(61.729313 64.267021 88.258347)
(59.091476 66.700493 88.258347)
(63.666637 66.283989 83.388931)
(60.946018 68.793831 83.388931)
(65.49305 68.185486 78.431)
(62.694378 70.767326 78.431)
(67.206596 69.969482 73.389801)
(64.334709 72.618874 73.389801)
(68.805473 71.634087 68.270699)
(65.865257 74.346512 68.270699)
(70.287979 73.177536 63.079117)
(67.284409 75.948402 63.079117)
(71.652534 74.59819 57.820572)
(68.590652 77.422844 57.820572)
(72.89769 75.894539 52.500648)
(69.782608 78.76828 52.500648)
(74.022133 77.065201 47.124989)
(70.859001 79.983276 47.124989)
(75.024666 78.108948 41.699299)
(71.818687 81.066544 41.699299)
(75.904221 79.024666 36.229347)
(72.66066 82.01693 36.229347)
(76.659866 79.811371 30.72093)
(73.38401 82.833427 30.72093)
(77.290802 80.468246 25.179901)
(73.987984 83.515175 25.179901)
(77.796349 80.994583 19.612143)
(74.471939 84.06144 19.612143)
(78.175987 81.389824 14.023563)
(74.83535 84.471649 14.023563)
(78.429298 81.653549 8.4200974)
(75.077835 84.745361 8.4200974)
(78.556023 81.785484 2.8076928)
(75.19915 84.882294 2.8076928)
(78.556023 81.785484 -2.8076928)
(75.19915 84.882294 -2.8076928)
(78.429298 81.653549 -8.4200974)
(75.077835 84.745361 -8.4200974)
(78.175987 81.389824 -14.023563)
(74.83535 84.471649 -14.023563)
(77.796349 80.994583 -19.612143)
(74.471939 84.06144 -19.612143)
(77.290802 80.468246 -25.179901)
(73.987984 83.515175 -25.179901)
(76.659866 79.811371 -30.72093)
(73.38401 82.833427 -30.72093)
(75.904221 79.024666 -36.229347)
(72.66066 82.01693 -36.229347)
(75.024666 78.108948 -41.699299)
(71.818687 81.066544 -41.699299)
(74.022133 77.065201 -47.124989)
(70.859001 79.983276 -47.124989)
(72.89769 75.894539 -52.500648)
(69.782608 78.76828 -52.500648)
(71.652534 74.59819 -57.820572)
(68.590652 77.422844 -57.820572)
(70.287979 73.177536 -63.079117)
(67.284409 75.948402 -63.079117)
(68.805473 71.634087 -68.270699)
(65.865257 74.346512 -68.270699)
(67.206596 69.969482 -73.389801)
(64.334709 72.618874 -73.389801)
(65.49305 68.185486 -78.431)
(62.694378 70.767326 -78.431)
(63.666637 66.283989 -83.388931)
(60.946018 68.793831 -83.388931)
(61.729313 64.267021 -88.258347)
(59.091476 66.700493 -88.258347)
(59.683125 62.136715 -93.034058)
(57.132729 64.489517 -93.034058)
(57.530247 59.895332 -97.711014)
(55.071846 62.163265 -97.711014)
(55.272964 57.545254 -102.28423)
(52.911026 59.724201 -102.28423)
(52.913677 55.088974 -106.74887)
(50.652557 57.174915 -106.74887)
(50.454887 52.529102 -111.10019)
(48.298836 54.518112 -111.10019)
(47.899204 49.868355 -115.33356)
(45.85236 51.756615 -115.33356)
(45.24934 47.109554 -119.4445)
(43.315731 48.893356 -119.4445)
(43.287514 45.698074 -121.86718)
(40.749985 47.974594 -121.86718)
(13.5314 -61.47377 -121.86718)
(15.632301 -63.422741 -119.4445)
(19.237659 -66.416107 -115.33356)
(23.064655 -69.087074 -111.10019)
(27.086458 -71.42112 -106.74887)
(31.275293 -73.405807 -102.28423)
(35.6026 -75.030891 -97.711014)
(40.039204 -76.28833 -93.034058)
(44.555466 -77.172333 -88.258347)
(49.121475 -77.679398 -83.388931)
(53.707207 -77.808327 -78.431)
(58.2827 -77.560188 -73.389801)
(62.818211 -76.938339 -68.270699)
(67.284409 -75.948402 -63.079117)
(71.652534 -74.59819 -57.820572)
(75.894539 -72.89769 -52.500648)
(79.983276 -70.859001 -47.124989)
(83.892639 -68.496223 -41.699299)
(87.597725 -65.825424 -36.229347)
(91.074944 -62.864494 -30.72093)
(94.302177 -59.633087 -25.179901)
(97.258911 -56.152458 -19.612143)
(99.926323 -52.445381 -14.023563)
(102.28742 -48.535984 -8.4200974)
(104.32711 -44.449627 -2.8076928)
(106.0323 -40.212749 2.8076928)
(107.392 -35.852715 8.4200974)
(108.3973 -31.397661 14.023563)
(109.04154 -26.876326 19.612143)
(109.32025 -22.31789 25.179901)
(109.23124 -17.751804 30.72093)
(108.77457 -13.207623 36.229347)
(107.95258 -8.7148333 41.699299)
(106.76989 -4.3026795 47.124989)
(105.23333 -2.9758653e-14 52.500648)
(103.35196 4.1649418 57.820572)
(101.13699 8.1646214 63.079117)
(98.601707 11.972415 68.270699)
(95.761452 15.562751 73.389801)
(92.633492 18.911263 78.431)
(89.236938 21.99493 83.388931)
(85.592659 24.792217 88.258347)
(81.723152 27.283197 93.034058)
(77.652412 29.449675 97.711014)
(73.405807 31.275293 102.28423)
(69.009964 32.745636 106.74887)
(64.492584 33.84832 111.10019)
(59.882298 34.573063 115.33356)
(55.20853 34.911758 119.4445)
(50.501312 34.85854 123.42863)
(45.79113 34.409801 127.28175)
(41.108738 33.564247 130.99973)
(36.485012 32.322903 134.57864)
(16.839678 -60.651035 -121.86718)
(18.173401 -62.741856 -119.4445)
(21.896364 -65.587616 -115.33356)
(25.827805 -68.102325 -111.10019)
(29.940329 -70.272537 -106.74887)
(34.205681 -72.086952 -102.28423)
(38.594917 -73.536469 -97.711014)
(43.078552 -74.614243 -93.034058)
(47.626747 -75.315674 -88.258347)
(52.209473 -75.638481 -83.388931)
(56.796677 -75.582649 -78.431)
(61.358463 -75.150475 -73.389801)
(65.865257 -74.346512 -68.270699)
(70.287979 -73.177536 -63.079117)
(74.59819 -71.652534 -57.820572)
(78.76828 -69.782608 -52.500648)
(82.771614 -67.580933 -47.124989)
(86.582672 -65.062653 -41.699299)
(90.177208 -62.244831 -36.229347)
(93.532379 -59.146294 -30.72093)
(96.626884 -55.787556 -25.179901)
(99.441063 -52.190697 -19.612143)
(101.95705 -48.379219 -14.023563)
(104.15881 -44.377922 -8.4200974)
(106.0323 -40.212749 -2.8076928)
(107.56551 -35.910645 2.8076928)
(108.74854 -31.499399 8.4200974)
(109.57365 -27.007479 14.023563)
(110.03531 -22.463869 19.612143)
(110.13025 -17.897907 25.179901)
(109.85744 -13.339108 30.72093)
(109.21817 -8.8170023 36.229347)
(108.21594 -4.3609533 41.699299)
(106.85654 -2.7470776e-14 47.124989)
(105.14799 4.237319 52.500648)
(103.10044 8.3231277 57.820572)
(100.72621 12.230376 63.079117)
(98.039665 15.932996 68.270699)
(95.057144 19.406054 73.389801)
(91.796883 22.6259 78.431)
(88.278923 25.570301 83.388931)
(84.524963 28.21858 88.258347)
(80.558289 30.551729 93.034058)
(76.403618 32.55254 97.711014)
(72.086952 34.205681 102.28423)
(67.635468 35.497829 106.74887)
(63.077347 36.417725 111.10019)
(58.441616 36.956242 115.33356)
(53.758003 37.106468 119.4445)
(49.056744 36.86375 123.42863)
(44.36845 36.225716 127.28175)
(39.723904 35.192307 130.99973)
(35.153912 33.765789 134.57864)
(20.098562 -59.650406 -121.86718)
(20.68502 -61.959202 -119.4445)
(24.519554 -64.652748 -115.33356)
(28.549063 -67.007111 -111.10019)
(32.745636 -69.009964 -106.74887)
(37.080589 -70.651161 -102.28423)
(41.524632 -71.922768 -97.711014)
(46.048027 -72.81913 -93.034058)
(50.620777 -73.336861 -88.258347)
(55.212784 -73.474869 -83.388931)
(59.794022 -73.234383 -78.431)
(64.334709 -72.618874 -73.389801)
(68.805473 -71.634087 -68.270699)
(73.177536 -70.287979 -63.079117)
(77.422844 -68.590652 -57.820572)
(81.514259 -66.554337 -52.500648)
(85.425697 -64.193245 -47.124989)
(89.132263 -61.523556 -41.699299)
(92.61042 -58.563282 -36.229347)
(95.838104 -55.332157 -30.72093)
(98.794853 -51.85154 -25.179901)
(101.46193 -48.144283 -19.612143)
(103.8224 -44.234589 -14.023563)
(105.86126 -40.147881 -8.4200974)
(107.56551 -35.910645 -2.8076928)
(108.92426 -31.550295 2.8076928)
(109.9287 -27.094992 8.4200974)
(110.57227 -22.57349 14.023563)
(110.8506 -18.014977 19.612143)
(110.7616 -13.448894 25.179901)
(110.30547 -8.9047775 30.72093)
(109.48462 -4.4120793 36.229347)
(108.30378 -2.5149902e-14 41.699299)
(106.76989 4.3026795 47.124989)
(104.89209 8.4677649 52.500648)
(102.68169 12.467813 57.820572)
(100.15205 16.276293 63.079117)
(97.318596 19.867733 68.270699)
(94.198647 23.21788 73.389801)
(90.811386 26.303839 78.431)
(87.177719 29.104198 83.388931)
(83.320168 31.599171 88.258347)
(79.262764 33.770706 93.034058)
(75.030891 35.6026 97.711014)
(70.651161 37.080589 102.28423)
(66.15126 38.192448 106.74887)
(61.559795 38.928055 111.10019)
(56.906143 39.279476 115.33356)
(52.220276 39.240993 119.4445)
(47.532604 38.80917 123.42863)
(42.873802 37.982876 127.28175)
(38.274635 36.763287 130.99973)
(23.163092 -61.07605 -119.4445)
(23.298492 -58.474808 -121.86718)
(25.60359 -60.093834 -119.4445)
(26.430086 -57.127693 -121.86718)
(28.00256 -59.014145 -119.4445)
(29.484156 -55.613018 -121.86718)
(30.35611 -57.838737 -119.4445)
(32.660423 -56.569511 -119.4445)
(34.573063 -59.882298 -115.33356)
(36.956242 -58.441616 -115.33356)
(38.928055 -61.559795 -111.10019)
(41.375248 -59.942398 -111.10019)
(43.391567 -62.863537 -106.74887)
(45.887634 -61.065353 -106.74887)
(47.933651 -63.788105 -102.28423)
(50.463264 -61.806278 -102.28423)
(52.52412 -64.330368 -97.711014)
(55.071846 -62.163265 -97.711014)
(57.132729 -64.489517 -93.034058)
(59.683125 -62.136715 -93.034058)
(61.729313 -64.267021 -88.258347)
(64.267021 -61.729313 -88.258347)
(66.283989 -63.666637 -83.388931)
(68.793831 -60.946018 -83.388931)
(70.767326 -62.694378 -78.431)
(73.234383 -59.794022 -78.431)
(75.150475 -61.358463 -73.389801)
(77.560188 -58.2827 -73.389801)
(79.40538 -59.66927 -68.270699)
(81.743622 -56.423546 -68.270699)
(83.50489 -57.639263 -63.079117)
(85.758064 -54.230114 -63.079117)
(87.422951 -55.282925 -57.820572)
(89.578072 -51.717926 -57.820572)
(91.134735 -52.616665 -52.500648)
(93.179489 -48.904366 -52.500648)
(94.616776 -49.658714 -47.124989)
(96.539597 -45.808605 -47.124989)
(97.847092 -46.429024 -41.699299)
(99.637245 -42.451466 -41.699299)
(100.80535 -42.949146 -36.229347)
(102.45299 -38.855293 -36.229347)
(103.47293 -39.242107 -30.72093)
(104.96913 -35.043846 -30.72093)
(105.83306 -35.332268 -25.179901)
(107.16991 -31.042145 -25.179901)
(107.87091 -31.24519 -19.612143)
(109.04154 -26.876326 -19.612143)
(109.57365 -27.007479 -14.023563)
(110.57227 -22.57349 -14.023563)
(110.93056 -22.646635 -8.4200974)
(111.75248 -18.161545 -8.4200974)
(111.93304 -18.190889 -2.8076928)
(112.57474 -13.669048 -2.8076928)
(112.57474 -13.669048 2.8076928)
(113.03384 -9.1250343 2.8076928)
(112.85149 -9.1103144 8.4200974)
(113.12681 -4.5588546 8.4200974)
(112.76143 -4.5441303 14.023563)
(112.85295 -1.3137964e-14 14.023563)
(112.30492 -1.5586233e-14 19.612143)
(112.21384 4.5220633 19.612143)
(111.48463 4.4926767 25.179901)
(111.21331 8.9780664 25.179901)
(110.30547 8.9047775 30.72093)
(109.85744 13.339108 30.72093)
(108.77457 13.207623 36.229347)
(108.15453 17.576822 36.229347)
(106.90127 17.373148 41.699299)
(106.11503 21.663538 41.699299)
(104.69704 21.374056 47.124989)
(103.75149 25.572445 47.124989)
(102.17544 25.183985 52.500648)
(101.07852 29.27775 52.500648)
(99.352005 28.77766 57.820572)
(98.112671 32.754822 57.820572)
(96.244209 32.131039 63.079117)
(94.872368 35.980343 63.079117)
(92.871338 35.221451 68.270699)
(91.377792 38.932438 68.270699)
(89.254387 38.02774 73.389801)
(87.65078 41.590813 73.389801)
(85.41597 40.53038 78.431)
(83.714699 43.936867 78.431)
(81.380142 42.711594 83.388931)
(79.594322 45.953804 83.388931)
(77.172333 44.555466 88.258347)
(75.315674 47.626747 88.258347)
(72.81913 46.048027 93.034058)
(70.905907 48.942814 93.034058)
(68.348206 47.177357 97.711014)
(66.393135 49.891201 97.711014)
(63.788105 47.933651 102.28423)
(61.806278 50.463264 102.28423)
(59.168121 48.309273 106.74887)
(57.174915 50.652557 106.74887)
(54.518112 48.298836 111.10019)
(52.529102 50.454887 111.10019)
(49.868355 47.899204 115.33356)
(32.45174 -53.935215 -121.86718)
(34.911758 -55.20853 -119.4445)
(39.279476 -56.906143 -115.33356)
(43.755329 -58.227772 -111.10019)
(48.309273 -59.168121 -106.74887)
(52.911026 -59.724201 -102.28423)
(57.530247 -59.895332 -97.711014)
(62.136715 -59.683125 -93.034058)
(66.700493 -59.091476 -88.258347)
(71.192093 -58.126541 -83.388931)
(75.582649 -56.796677 -78.431)
(79.844093 -55.112396 -73.389801)
(83.949272 -53.086304 -68.270699)
(87.872139 -50.733006 -63.079117)
(91.587898 -48.069035 -57.820572)
(95.073097 -45.112747 -52.500648)
(98.305824 -41.884197 -47.124989)
(101.26579 -38.405048 -41.699299)
(103.93444 -34.698414 -36.229347)
(106.29507 -30.788744 -30.72093)
(108.33295 -26.701672 -25.179901)
(110.03531 -22.463869 -19.612143)
(111.39153 -18.102886 -14.023563)
(112.39314 -13.646997 -8.4200974)
(113.03384 -9.1250343 -2.8076928)
(113.30959 -4.5662208 2.8076928)
(113.21863 -1.0671916e-14 8.4200974)
(112.76143 4.5441303 14.023563)
(111.94075 9.0367918 19.612143)
(110.7616 13.448894 25.179901)
(109.23124 17.751804 30.72093)
(107.35907 21.917511 36.229347)
(105.15666 25.918791 41.699299)
(102.63765 29.729357 47.124989)
(99.81765 33.324028 52.500648)
(96.714195 36.678856 57.820572)
(93.346642 39.77129 63.079117)
(89.736031 42.580276 68.270699)
(85.905006 45.086422 73.389801)
(81.877647 47.272083 78.431)
(77.679398 49.121475 83.388931)
(73.336861 50.620777 88.258347)
(68.87767 51.758213 93.034058)
(64.330368 52.52412 97.711014)
(59.724201 52.911026 102.28423)
(55.088974 52.913677 106.74887)
(35.324142 -52.099213 -121.86718)
(37.106468 -53.758003 -119.4445)
(41.538998 -55.278366 -115.33356)
(46.064442 -56.418697 -111.10019)
(50.652557 -57.174915 -106.74887)
(55.272964 -57.545254 -102.28423)
(59.895332 -57.530247 -97.711014)
(64.489517 -57.132729 -93.034058)
(69.025772 -56.357796 -88.258347)
(73.474869 -55.212784 -83.388931)
(77.808327 -53.707207 -78.431)
(81.998489 -51.852703 -73.389801)
(86.018761 -49.662952 -68.270699)
(89.843689 -47.153606 -63.079117)
(93.449165 -44.342178 -57.820572)
(96.8125 -41.247952 -52.500648)
(99.912605 -37.891853 -47.124989)
(102.73008 -34.296341 -41.699299)
(105.24731 -30.485256 -36.229347)
(107.44861 -26.483704 -30.72093)
(109.32025 -22.31789 -25.179901)
(110.8506 -18.014977 -19.612143)
(112.03013 -13.60292 -14.023563)
(112.85149 -9.1103144 -8.4200974)
(113.30959 -4.5662208 -2.8076928)
(113.40157 -8.1907095e-15 2.8076928)
(113.12681 4.5588546 8.4200974)
(112.487 9.0808897 14.023563)
(111.48609 13.536862 19.612143)
(110.13025 17.897907 25.179901)
(108.42786 22.135706 30.72093)
(106.38947 26.222651 36.229347)
(104.02774 30.132002 41.699299)
(101.35733 33.838047 47.124989)
(98.394875 37.316254 52.500648)
(95.158852 40.5434 57.820572)
(91.66951 43.497723 63.079117)
(87.948723 46.15905 68.270699)
(84.01989 48.508904 73.389801)
(79.907791 50.530624 78.431)
(75.638481 52.209473 83.388931)
(71.23909 53.532703 88.258347)
(66.737717 54.489662 93.034058)
(62.163265 55.071846 97.711014)
(57.545254 55.272964 102.28423)
(38.09293 -50.110394 -121.86718)
(39.240993 -52.220276 -119.4445)
(43.731144 -53.560928 -115.33356)
(48.298836 -54.518112 -111.10019)
(52.913677 -55.088974 -106.74887)
(57.545254 -55.272964 -102.28423)
(62.163265 -55.071846 -97.711014)
(66.737717 -54.489662 -93.034058)
(71.23909 -53.532703 -88.258347)
(75.638481 -52.209473 -83.388931)
(79.907791 -50.530624 -78.431)
(84.01989 -48.508904 -73.389801)
(87.948723 -46.15905 -68.270699)
(91.66951 -43.497723 -63.079117)
(95.158852 -40.5434 -57.820572)
(98.394875 -37.316254 -52.500648)
(101.35733 -33.838047 -47.124989)
(104.02774 -30.132002 -41.699299)
(106.38947 -26.222651 -36.229347)
(108.42786 -22.135706 -30.72093)
(110.13025 -17.897907 -25.179901)
(111.48609 -13.536862 -19.612143)
(112.487 -9.0808897 -14.023563)
(113.12681 -4.5588546 -8.4200974)
(113.40157 -5.6969772e-15 -2.8076928)
(113.30959 4.5662208 2.8076928)
(112.85149 9.1103144 8.4200974)
(112.03013 13.60292 14.023563)
(110.8506 18.014977 19.612143)
(109.32025 22.31789 25.179901)
(107.44861 26.483704 30.72093)
(105.24731 30.485256 36.229347)
(102.73008 34.296341 41.699299)
(99.912605 37.891853 47.124989)
(96.8125 41.247952 52.500648)
(93.449165 44.342178 57.820572)
(89.843689 47.153606 63.079117)
(86.018761 49.662952 68.270699)
(81.998489 51.852703 73.389801)
(77.808327 53.707207 78.431)
(73.474869 55.212784 83.388931)
(69.025772 56.357796 88.258347)
(64.489517 57.132729 93.034058)
(59.895332 57.530247 97.711014)
(41.311867 -50.597851 -119.4445)
(40.749985 -47.974594 -121.86718)
(43.315731 -48.893356 -119.4445)
(43.287514 -45.698074 -121.86718)
(45.24934 -47.109554 -119.4445)
(45.698074 -43.287514 -121.86718)
(47.109554 -45.24934 -119.4445)
(48.893356 -43.315731 -119.4445)
(51.756615 -45.85236 -115.33356)
(53.560928 -43.731144 -115.33356)
(56.418697 -46.064442 -111.10019)
(58.227772 -43.755329 -111.10019)
(61.065353 -45.887634 -106.74887)
(62.863537 -43.391567 -106.74887)
(65.666466 -45.326286 -102.28423)
(67.438316 -42.645405 -102.28423)
(70.192413 -44.386993 -97.711014)
(71.922768 -41.524632 -97.711014)
(74.614243 -43.078552 -93.034058)
(76.28833 -40.039204 -93.034058)
(78.903809 -41.411915 -88.258347)
(80.507309 -38.201195 -88.258347)
(83.033966 -39.400108 -83.388931)
(84.553108 -36.024712 -83.388931)
(86.978691 -37.058155 -78.431)
(88.40033 -33.525822 -78.431)
(90.713226 -34.402988 -73.389801)
(92.024925 -30.722435 -73.389801)
(94.214241 -31.453335 -68.270699)
(95.404335 -27.634201 -68.270699)
(97.459938 -28.229616 -63.079117)
(98.517593 -24.282406 -63.079117)
(100.43019 -24.753819 -57.820572)
(101.34547 -20.689827 -57.820572)
(103.10664 -21.04937 -52.500648)
(103.87059 -16.880613 -52.500648)
(105.47279 -17.140995 -47.124989)
(106.07745 -12.880134 -47.124989)
(107.51412 -13.054578 -41.699299)
(107.95258 -8.7148333 -41.699299)
(109.21817 -8.8170023 -36.229347)
(109.48462 -4.4120793 -36.229347)
(110.57456 -4.4560027 -30.72093)
(110.66431 6.8665988e-15 -30.72093)
(111.57511 4.3501173e-15 -25.179901)
(111.48463 4.4926767 -25.179901)
(112.21384 4.5220633 -19.612143)
(111.94075 9.0367918 -19.612143)
(112.487 9.0808897 -14.023563)
(112.03013 13.60292 -14.023563)
(112.39314 13.646997 -8.4200974)
(111.75248 18.161545 -8.4200974)
(111.93304 18.190889 -2.8076928)
(111.10979 22.683228 -2.8076928)
(111.10979 22.683228 2.8076928)
(110.10632 27.138771 2.8076928)
(109.9287 27.094992 8.4200974)
(108.74854 31.499399 8.4200974)
(108.3973 31.397661 14.023563)
(107.04514 35.736916 14.023563)
(106.52531 35.563374 19.612143)
(105.00692 39.823872 19.612143)
(104.32455 39.565083 25.179901)
(102.64681 43.733719 25.179901)
(101.80889 43.376717 30.72093)
(99.979721 47.440968 30.72093)
(98.994209 46.973335 36.229347)
(97.022499 50.921337 36.229347)
(95.898232 50.331276 41.699299)
(93.793823 54.15189 41.699299)
(92.540482 53.428272 47.124989)
(90.314095 57.111172 47.124989)
(88.942169 56.243618 52.500648)
(86.605331 59.779346 52.500648)
(85.126038 58.758259 57.820572)
(82.69104 62.138287 57.820572)
(81.116264 60.954922 63.079117)
(78.596077 64.171707 63.079117)
(76.938339 62.818211 68.270699)
(74.346512 65.865257 68.270699)
(72.618874 64.334709 73.389801)
(69.969482 67.206596 73.389801)
(68.185486 65.49305 78.431)
(47.974594 -40.749985 -121.86718)
(50.597851 -41.311867 -119.4445)
(55.278366 -41.538998 -115.33356)
(59.942398 -41.375248 -111.10019)
(64.559753 -40.825115 -106.74887)
(69.100777 -39.895355 -102.28423)
(73.536469 -38.594917 -97.711014)
(77.838669 -36.93491 -93.034058)
(81.980225 -34.928509 -88.258347)
(85.935104 -32.590885 -83.388931)
(89.678589 -29.939112 -78.431)
(93.187363 -26.992048 -73.389801)
(96.439674 -23.770245 -68.270699)
(99.415451 -20.295809 -63.079117)
(102.09638 -16.592278 -57.820572)
(104.46606 -12.684476 -52.500648)
(106.51005 -8.5983801 -47.124989)
(108.21594 -4.3609533 -41.699299)
(109.57348 9.379621e-15 -36.229347)
(110.57456 4.4560027 -30.72093)
(111.21331 8.9780664 -25.179901)
(111.48609 13.536862 -19.612143)
(111.39153 18.102886 -14.023563)
(110.93056 22.646635 -8.4200974)
(110.10632 27.138771 -2.8076928)
(108.92426 31.550295 2.8076928)
(107.392 35.852715 8.4200974)
(105.51934 40.018208 14.023563)
(103.31821 44.019779 19.612143)
(100.80258 47.831421 25.179901)
(97.98838 51.428268 30.72093)
(94.893417 54.786739 36.229347)
(91.537277 57.884666 41.699299)
(87.941216 60.701439 47.124989)
(84.128021 63.218109 52.500648)
(80.121925 65.417526 57.820572)
(75.948402 67.284409 63.079117)
(71.634087 68.805473 68.270699)
(50.110394 -38.09293 -121.86718)
(52.220276 -39.240993 -119.4445)
(56.906143 -39.279476 -115.33356)
(61.559795 -38.928055 -111.10019)
(66.15126 -38.192448 -106.74887)
(70.651161 -37.080589 -102.28423)
(75.030891 -35.6026 -97.711014)
(79.262764 -33.770706 -93.034058)
(83.320168 -31.599171 -88.258347)
(87.177719 -29.104198 -83.388931)
(90.811386 -26.303839 -78.431)
(94.198647 -23.21788 -73.389801)
(97.318596 -19.867733 -68.270699)
(100.15205 -16.276293 -63.079117)
(102.68169 -12.467813 -57.820572)
(104.89209 -8.4677649 -52.500648)
(106.76989 -4.3026795 -47.124989)
(108.30378 1.1886515e-14 -41.699299)
(109.48462 4.4120793 -36.229347)
(110.30547 8.9047775 -30.72093)
(110.7616 13.448894 -25.179901)
(110.8506 18.014977 -19.612143)
(110.57227 22.57349 -14.023563)
(109.9287 27.094992 -8.4200974)
(108.92426 31.550295 -2.8076928)
(107.56551 35.910645 2.8076928)
(105.86126 40.147881 8.4200974)
(103.8224 44.234589 14.023563)
(101.46193 48.144283 19.612143)
(98.794853 51.85154 25.179901)
(95.838104 55.332157 30.72093)
(92.61042 58.563282 36.229347)
(89.132263 61.523556 41.699299)
(85.425697 64.193245 47.124989)
(81.514259 66.554337 52.500648)
(77.422844 68.590652 57.820572)
(73.177536 70.287979 63.079117)
(53.758003 -37.106468 -119.4445)
(52.099213 -35.324142 -121.86718)
(55.20853 -34.911758 -119.4445)
(53.935215 -32.45174 -121.86718)
(56.569511 -32.660423 -119.4445)
(55.613018 -29.484156 -121.86718)
(57.838737 -30.35611 -119.4445)
(59.014145 -28.00256 -119.4445)
(62.470097 -29.642429 -115.33356)
(63.61301 -27.102972 -115.33356)
(67.007111 -28.549063 -111.10019)
(68.102325 -25.827805 -111.10019)
(71.42112 -27.086458 -106.74887)
(72.453857 -24.188652 -106.74887)
(75.684395 -25.267162 -102.28423)
(76.640419 -22.199167 -102.28423)
(79.770325 -23.105755 -97.711014)
(80.636002 -19.874989 -97.711014)
(83.653534 -20.618744 -93.034058)