/*--------------------------------*- C++ -*----------------------------------*\
| =========                 |                                                 |
| \\      /  F ield         | OpenFOAM: The Open Source CFD Toolbox           |
|  \\    /   O peration     | Version:  v2206                                 |
|   \\  /    A nd           | Website:  www.openfoam.com                      |
|    \\/     M anipulation  |                                                 |
\*---------------------------------------------------------------------------*/
FoamFile
{
    version     2.0;
    format      ascii;
    class       dictionary;
    object      fvSolution;
}
// * * * * * * * * * * * * * * * * * * * * * * * * * * * * * * * * * * * * * //

solvers
{
    p
    {
        solver          GAMG;
        tolerance       1e-06;
        relTol          0.1;
        smoother        GaussSeidel;
    }

    pFinal
    {
        $p;
        relTol          0;
    }

    "(U|k|B|nuTilda|Yi)"
    {
        solver          smoothSolver;
        smoother        GaussSeidel;
        tolerance       1e-05;
        relTol          0;
    }

    UFinal
    {
        $U;
        relTol          0;
    }

    "YiFinal"
    {
        $Sch4;
        relTol          0;
    }
}

PIMPLE
{
    nNonOrthogonalCorrectors 0;
    consistent      yes;

    pRefCell 0;
    pRefValue 0;
}

// PISO
// {
//     nCorrectors     2;
//     nNonOrthogonalCorrectors 0;
//     pRefCell 0;
//     pRefValue 0;
// }

relaxationFactors
{
    equations
    {
        U               0.9; // 0.9 is more stable but 0.95 more convergent
        ".*"            0.9; // 0.9 is more stable but 0.95 more convergent
    }
}


// ************************************************************************* //
