/*--------------------------------*- C++ -*----------------------------------*\
  =========                 |
  \\      /  F ield         | OpenFOAM: The Open Source CFD Toolbox
   \\    /   O peration     | Website:  https://openfoam.org
    \\  /    A nd           | Version:  6
     \\/     M anipulation  |
\*---------------------------------------------------------------------------*/
FoamFile
{
    version     2.0;
    format      ascii;
    class       extendedFeatureEdgeMesh;
    location    "constant/extendedFeatureEdgeMesh";
    object      airfoil.extendedFeatureEdgeMesh;
}
// * * * * * * * * * * * * * * * * * * * * * * * * * * * * * * * * * * * * * //

// points

112
(
(-0.004782 0.055827 -0.2)
(-0.004782 0.055827 0.2)
(0.043022 0.026597 -0.2)
(0.043022 0.026597 0.2)
(8.7e-05 -0.001875 -0.2)
(8.7e-05 -0.001875 0.2)
(0.983456 -0.08567 -0.2)
(0.983456 -0.08567 0.2)
(0.983808 -0.084747 -0.2)
(0.983808 -0.084747 0.2)
(-0 0 -0.2)
(0 -0 0.2)
(0.052529 0.029253 -0.2)
(0.052529 0.029253 0.2)
(0.075644 0.033465 -0.2)
(0.075644 0.033464 0.2)
(0.102777 0.036441 -0.2)
(0.102777 0.036441 0.2)
(0.003907 -0.00778 -0.2)
(0.003907 -0.00778 0.2)
(0.012906 -0.014028 -0.2)
(0.012906 -0.014028 0.2)
(0.026749 -0.019997 -0.2)
(0.026749 -0.019997 0.2)
(0.045583 -0.02548 -0.2)
(0.045583 -0.02548 0.2)
(0.069422 -0.030547 -0.2)
(0.069422 -0.030547 0.2)
(0.098028 -0.035278 -0.2)
(0.098028 -0.035278 0.2)
(0.131112 -0.039668 -0.2)
(0.131112 -0.039668 0.2)
(0.16833 -0.043717 -0.2)
(0.16833 -0.043717 0.2)
(0.133759 0.038097 -0.2)
(0.133759 0.038097 0.2)
(0.168407 0.038388 -0.2)
(0.168407 0.038388 0.2)
(0.206439 0.03733 -0.2)
(0.206439 0.03733 0.2)
(0.209343 -0.047426 -0.2)
(0.209343 -0.047426 0.2)
(0.253726 -0.050827 -0.2)
(0.253726 -0.050827 0.2)
(0.247568 0.034946 -0.2)
(0.247568 0.034946 0.2)
(0.301003 -0.053959 -0.2)
(0.301003 -0.053959 0.2)
(0.291437 0.031299 -0.2)
(0.291437 0.031299 0.2)
(0.337643 0.026483 -0.2)
(0.337643 0.026483 0.2)
(0.350639 -0.056857 -0.2)
(0.350639 -0.056857 0.2)
(0.385764 0.020607 -0.2)
(0.385764 0.020607 0.2)
(0.40206 -0.059548 -0.2)
(0.40206 -0.059548 0.2)
(0.454694 -0.062035 -0.2)
(0.454694 -0.062035 0.2)
(0.507937 -0.064314 -0.2)
(0.507937 -0.064314 0.2)
(0.561189 -0.066393 -0.2)
(0.561189 -0.066393 0.2)
(0.613867 -0.068262 -0.2)
(0.613867 -0.068262 0.2)
(0.435351 0.013819 -0.2)
(0.435351 0.013819 0.2)
(0.485895 0.006265 -0.2)
(0.485895 0.006265 0.2)
(0.536871 -0.001858 -0.2)
(0.536871 -0.001858 0.2)
(0.58774 -0.010404 -0.2)
(0.58774 -0.010404 0.2)
(0.637926 -0.019182 -0.2)
(0.637926 -0.019182 0.2)
(0.665417 -0.069931 -0.2)
(0.665417 -0.069931 0.2)
(0.686903 -0.028004 -0.2)
(0.686903 -0.028004 0.2)
(0.715322 -0.071486 -0.2)
(0.715322 -0.071486 0.2)
(0.734087 -0.036679 -0.2)
(0.734087 -0.036679 0.2)
(0.778891 -0.045016 -0.2)
(0.778891 -0.045016 0.2)
(0.762976 -0.073056 -0.2)
(0.762976 -0.073056 0.2)
(0.820753 -0.052895 -0.2)
(0.820753 -0.052895 0.2)
(0.807742 -0.074714 -0.2)
(0.807742 -0.074714 0.2)
(0.859145 -0.060168 0.2)
(0.859145 -0.060168 -0.2)
(0.848975 -0.076484 -0.2)
(0.848975 -0.076484 0.2)
(0.893583 -0.066745 -0.2)
(0.893583 -0.066745 0.2)
(0.886113 -0.078348 -0.2)
(0.886113 -0.078348 0.2)
(0.923583 -0.072532 -0.2)
(0.923583 -0.072532 0.2)
(0.918598 -0.080287 -0.2)
(0.918598 -0.080287 0.2)
(0.948784 -0.077517 -0.2)
(0.948784 -0.077517 0.2)
(0.945952 -0.082238 -0.2)
(0.945952 -0.082238 0.2)
(0.967693 -0.08409 -0.2)
(0.967693 -0.08409 0.2)
(0.96892 -0.081658 -0.2)
(0.96892 -0.081658 0.2)
)

// edges

117
(
(2 3)
(0 1)
(5 4)
(7 6)
(8 9)
(10 0)
(1 11)
(0 2)
(3 1)
(2 12)
(13 3)
(12 14)
(15 13)
(14 16)
(17 15)
(4 10)
(11 5)
(18 4)
(5 19)
(20 18)
(19 21)
(22 20)
(21 23)
(24 22)
(23 25)
(26 24)
(25 27)
(28 26)
(27 29)
(30 28)
(29 31)
(32 30)
(31 33)
(16 34)
(35 17)
(34 36)
(37 35)
(36 38)
(39 37)
(40 32)
(33 41)
(42 40)
(41 43)
(38 44)
(45 39)
(46 42)
(43 47)
(44 48)
(49 45)
(48 50)
(51 49)
(52 46)
(47 53)
(50 54)
(55 51)
(56 52)
(53 57)
(58 56)
(57 59)
(60 58)
(59 61)
(62 60)
(61 63)
(64 62)
(63 65)
(54 66)
(67 55)
(66 68)
(69 67)
(68 70)
(71 69)
(70 72)
(73 71)
(72 74)
(75 73)
(76 64)
(65 77)
(74 78)
(79 75)
(80 76)
(77 81)
(78 82)
(83 79)
(82 84)
(85 83)
(86 80)
(81 87)
(84 88)
(89 85)
(90 86)
(87 91)
(92 89)
(88 93)
(94 90)
(91 95)
(93 96)
(97 92)
(98 94)
(95 99)
(96 100)
(101 97)
(102 98)
(99 103)
(100 104)
(105 101)
(106 102)
(103 107)
(108 106)
(107 109)
(6 108)
(109 7)
(104 110)
(111 105)
(110 8)
(9 111)
(7 9)
(8 6)
)

// concaveStart mixedStart nonFeatureStart
0 0 10
// internalStart flatStart openStart multipleStart
1 5 5 117
// normals

112
(
(0.9963514636 0.08534495314 0)
(0.9963514636 0.08534495314 0)
(-0.5216636741 -0.853151224 0)
(-0.5216636741 -0.853151224 0)
(0.2690699888 -0.9631206265 0)
(0.2690699888 -0.9631206265 0)
(0.1792674534 -0.9838003762 -2.45950094e-06)
(0.1792262595 -0.9838078816 0)
(0.1090280868 -0.9940386694 0)
(0.1090642869 -0.9940346982 -2.485086746e-06)
(0.9989252551 0.04635013184 0)
(0.9989252551 0.04635013184 -0)
(0.839627375 0.5431628404 0)
(0.839627375 0.5431628404 -0)
(0.5703154084 0.8214257939 0)
(0.5703154084 0.8214257939 -0)
(0.3959518363 0.9182712798 0)
(0.3959518363 0.9182712798 -0)
(0.2795183958 0.9601403368 0)
(0.2795183958 0.9601403368 -0)
(0.2079063567 0.9781487345 0)
(0.2079063567 0.9781487345 -0)
(0.1631684337 0.9865982274 0)
(0.1631684337 0.9865982274 -0)
(0.1315395643 0.9913109215 0)
(0.1315395643 0.9913109215 -0)
(0.1081532992 0.9941342283 0)
(0.1081532992 0.9941342283 -0)
(0.05337420137 -0.9985745814 0)
(0.05337420137 -0.9985745814 0)
(0.00839845697 -0.9999647323 0)
(0.00839845697 -0.9999647323 0)
(-0.02780792111 -0.999613285 0)
(-0.02780792111 -0.999613285 0)
(0.09006718554 0.9959356917 0)
(0.09006718554 0.9959356917 -0)
(0.07640444684 0.997076908 0)
(0.07640444684 0.997076908 -0)
(-0.05786683743 -0.9983243106 0)
(-0.05786683743 -0.9983243106 0)
(0.06610296154 0.9978128073 0)
(0.06610296154 0.9978128073 -0)
(-0.08284807729 -0.9965621888 0)
(-0.08284807729 -0.9965621888 0)
(-0.1036673059 -0.9946120297 0)
(-0.1036673059 -0.9946120297 0)
(0.05828578495 0.9982999385 0)
(0.05828578495 0.9982999385 -0)
(-0.1212085498 -0.9926270636 0)
(-0.1212085498 -0.9926270636 0)
(0.0522611893 0.9986334503 0)
(0.0522611893 0.9986334503 -0)
(0.04719816757 0.9988855455 0)
(0.04719816757 0.9988855455 -0)
(0.04276459097 0.9990851764 0)
(0.04276459097 0.9990851764 -0)
(0.03901106852 0.9992387785 0)
(0.03901106852 0.9992387785 -0)
(0.03545739686 0.9993711888 0)
(0.03545739686 0.9993711888 -0)
(-0.1356258642 -0.9907601248 0)
(-0.1356258642 -0.9907601248 0)
(-0.1478122551 -0.9890154383 0)
(-0.1478122551 -0.9890154383 0)
(-0.1573641068 -0.9875406513 0)
(-0.1573641068 -0.9875406513 0)
(-0.1656783683 -0.9861798407 0)
(-0.1656783683 -0.9861798407 0)
(-0.1722936779 -0.9850456277 0)
(-0.1722936779 -0.9850456277 0)
(0.03235937811 0.9994762982 0)
(0.03235937811 0.9994762982 -0)
(-0.1772725044 -0.9841618054 0)
(-0.1772725044 -0.9841618054 0)
(0.03114408732 0.9995149053 0)
(0.03114408732 0.9995149053 -0)
(-0.1808239404 -0.9835154816 0)
(-0.1808239404 -0.9835154816 0)
(-0.1829370164 -0.983124635 0)
(-0.1829370164 -0.983124635 0)
(0.03292795217 0.999457728 0)
(0.03292795217 0.999457728 -0)
(-0.1849660124 -0.9827449182 0)
(-0.1849660124 -0.9827449182 0)
(0.03701166051 0.9993148338 0)
(0.03701166051 0.9993148338 -0)
(-0.1861300574 -0.9825251151 0)
(-0.1861300574 -0.9825251151 0)
(0.04288728575 0.9990799171 0)
(0.04288728575 0.9990799171 -0)
(-0.1875904722 -0.9822473287 0)
(-0.1875904722 -0.9822473287 0)
(0.05012807838 0.9987427976 0)
(0.05012807838 0.9987427976 -0)
(-0.1894082075 -0.9818984321 0)
(-0.1894082075 -0.9818984321 0)
(0.0595830408 0.9982233524 0)
(0.0595830408 0.9982233524 -0)
(-0.1940495904 -0.9809917209 0)
(-0.1940495904 -0.9809917209 0)
(0.07114339249 0.9974660985 0)
(0.07114339249 0.9974660985 -0)
(0.0848772778 0.9963914129 0)
(0.0848772778 0.9963914129 -0)
(0.09973496045 0.9950140389 0)
(0.09973496045 0.9950140389 -0)
(-0.201436055 -0.979501667 0)
(-0.201436055 -0.979501667 0)
(-0.2031557842 -0.9791464279 0)
(-0.2031557842 -0.9791464279 0)
(-0.9343593819 0.356332072 0)
(-0.9343593819 0.356332072 0)
)

// normal volume types

112
(
0
0
0
0
0
0
0
0
0
0
0
0
0
0
0
0
0
0
0
0
0
0
0
0
0
0
0
0
0
0
0
0
0
0
0
0
0
0
0
0
0
0
0
0
0
0
0
0
0
0
0
0
0
0
0
0
0
0
0
0
0
0
0
0
0
0
0
0
0
0
0
0
0
0
0
0
0
0
0
0
0
0
0
0
0
0
0
0
0
0
0
0
0
0
0
0
0
0
0
0
0
0
0
0
0
0
0
0
0
0
0
0
)

// normalDirections

117
(
2(1 -1)
2(1 -1)
2(1 -1)
2(1 -1)
2(1 -1)
1(1)
1(1)
1(1)
1(1)
1(1)
1(1)
1(1)
1(1)
1(1)
1(1)
1(1)
1(1)
1(1)
1(1)
1(1)
1(1)
1(1)
1(1)
1(1)
1(1)
1(1)
1(1)
1(1)
1(1)
1(1)
1(1)
1(1)
1(1)
1(1)
1(1)
1(1)
1(1)
1(1)
1(1)
1(1)
1(1)
1(1)
1(1)
1(1)
1(1)
1(1)
1(1)
1(1)
1(1)
1(1)
1(1)
1(1)
1(1)
1(1)
1(1)
1(1)
1(1)
1(1)
1(1)
1(1)
1(1)
1(1)
1(1)
1(1)
1(1)
1(1)
1(1)
1(1)
1(1)
1(1)
1(1)
1(1)
1(1)
1(1)
1(1)
1(1)
1(1)
1(1)
1(1)
1(1)
1(1)
1(1)
1(1)
1(1)
1(1)
1(1)
1(1)
1(1)
1(1)
1(1)
1(1)
1(1)
1(1)
1(1)
1(1)
1(1)
1(1)
1(1)
1(1)
1(1)
1(1)
1(1)
1(1)
1(1)
1(1)
1(1)
1(1)
1(1)
1(1)
1(1)
1(1)
1(1)
1(1)
1(1)
1(1)
1(1)
1(1)
)

// edgeNormals

117
(
2(2 5)
2(0 3)
2(11 12)
2(105 110)
2(108 111)
1(0)
1(1)
1(2)
1(3)
1(4)
1(5)
1(6)
1(7)
1(8)
1(9)
1(10)
1(11)
1(12)
1(13)
1(14)
1(15)
1(16)
1(17)
1(18)
1(19)
1(20)
1(21)
1(22)
1(23)
1(24)
1(25)
1(26)
1(27)
1(28)
1(29)
1(30)
1(31)
1(32)
1(33)
1(34)
1(35)
1(36)
1(37)
1(38)
1(39)
1(40)
1(41)
1(42)
1(43)
1(44)
1(45)
1(46)
1(47)
1(48)
1(49)
1(50)
1(51)
1(52)
1(53)
1(54)
1(55)
1(56)
1(57)
1(58)
1(59)
1(60)
1(61)
1(62)
1(63)
1(64)
1(65)
1(66)
1(67)
1(68)
1(69)
1(70)
1(71)
1(72)
1(73)
1(74)
1(75)
1(76)
1(77)
1(78)
1(79)
1(80)
1(81)
1(82)
1(83)
1(84)
1(85)
1(86)
1(87)
1(88)
1(89)
1(90)
1(91)
1(92)
1(93)
1(94)
1(95)
1(96)
1(97)
1(98)
1(99)
1(100)
1(101)
1(102)
1(103)
1(104)
1(105)
1(106)
1(107)
1(108)
1(109)
1(110)
1(111)
)

// featurePointNormals

10
(
2(0 3)
2(0 3)
2(2 5)
2(2 5)
2(11 12)
2(11 12)
2(105 110)
2(105 110)
2(108 111)
2(108 111)
)

// featurePointEdges

10
(
3(1 5 7)
3(1 6 8)
3(0 7 9)
3(0 8 10)
3(2 15 17)
3(2 16 18)
3(3 109 116)
3(3 110 115)
3(4 113 116)
3(4 114 115)
)

// regionEdges

112
(
5
6
7
8
9
10
11
12
13
14
15
16
17
18
19
20
21
22
23
24
25
26
27
28
29
30
31
32
33
34
35
36
37
38
39
40
41
42
43
44
45
46
47
48
49
50
51
52
53
54
55
56
57
58
59
60
61
62
63
64
65
66
67
68
69
70
71
72
73
74
75
76
77
78
79
80
81
82
83
84
85
86
87
88
89
90
91
92
93
94
95
96
97
98
99
100
101
102
103
104
105
106
107
108
109
110
111
112
113
114
115
116
)



// ************************************************************************* //
