/*--------------------------------*- C++ -*----------------------------------*\
| =========                 |                                                 |
| \\      /  F ield         | OpenFOAM: The Open Source CFD Toolbox           |
|  \\    /   O peration     | Version:  2212                                  |
|   \\  /    A nd           | Website:  www.openfoam.com                      |
|    \\/     M anipulation  |                                                 |
\*---------------------------------------------------------------------------*/
FoamFile
{
    version     2.0;
    format      ascii;
    arch        "LSB;label=64;scalar=64";
    class       featureEdgeMesh;
    location    "constant/triSurface";
    object      GeoTank_ss.eMesh;
}
// * * * * * * * * * * * * * * * * * * * * * * * * * * * * * * * * * * * * * //


// points:

1582
(
(-3.61329 -9.59434 -83.4563)
(-7.7893 -6.38329 -65.4457)
(-9.11 -4.5566 -83.4738)
(-9.81239 2.29241 -65.4514)
(-7.43619 6.89926 -65.4674)
(-7.89952 6.41623 -83.4837)
(-2.61792 9.79423 -83.4405)
(-1.862 10.0119 -65.4652)
(3.68751 9.37469 -65.4485)
(7.83329 6.4201 -65.4512)
(8.91967 3.95504 -84.203)
(10.2172 -1.21545 -83.4195)
(7.11181 -7.20808 -65.4494)
(2.57478 -9.75457 -65.4633)
(7.01806 -7.2978 -83.4724)
(6.6195 7.5924 -83.4722)
(2.58956 9.74845 -83.4589)
(21.6345 -27.3489 -69.8002)
(21.672 -29.1815 -67.6722)
(-34.4928 -5.06868 -69.8114)
(-36.1079 -4.17775 -67.6722)
(-26.3568 38.8966 80.3316)
(-25.0166 43.327 77.0148)
(7.89952 6.41623 84.5637)
(7.43619 6.89926 66.5474)
(2.61792 9.79423 84.5205)
(1.862 10.0119 66.5452)
(-3.68751 9.37469 66.5285)
(-7.83329 6.4201 66.5312)
(-8.91967 3.95504 85.283)
(-10.2172 -1.21545 84.4995)
(-7.11181 -7.20808 66.5294)
(3.19116 -9.6884 66.5631)
(3.61329 -9.59434 84.5363)
(9.11 -4.5566 84.5538)
(9.82014 -2.30333 66.5415)
(-6.6195 7.5924 84.5522)
(-2.58956 9.74845 84.5389)
(-7.01806 -7.2978 84.5524)
(46.8638 3.37742 80.3316)
(50.0306 0.00152489 77.0148)
(34.4927 -5.06868 70.8914)
(-21.6719 -29.1815 68.7523)
(-23.7391 -44.13 75.7114)
(-19.0765 -42.7553 78.9827)
(-20.507 -42.274 80.3316)
(-8.14794 4.37245 65.5364)
(-8.9474 -1.60659 65.5394)
(-1.73222 9.16034 65.5339)
(5.18044 7.52995 65.5386)
(0.468561 -9.06564 65.5395)
(-5.73242 -7.35215 65.5339)
(-8.14794 -4.37245 85.5436)
(-1.73222 -9.16034 85.5461)
(6.57554 -6.64324 85.5476)
(3.37246 8.8098 85.5519)
(4.78782 1.97684 215.54)
(4.47331 -2.4628 215.54)
(0.28232 5.27534 215.54)
(-3.79814 -3.3412 215.54)
(-5.09762 -0.0480063 215.54)
(-1.12101 -4.98189 215.54)
(1.8743 -4.66165 215.54)
(-3.80881 3.41981 215.54)
(3.21095 -2.73729 -85.4667)
(3.94976 1.02774 -85.4615)
(-2.18663 -3.78736 -85.4816)
(-3.86842 1.8846 -85.4756)
(1.13291 4.13095 -85.4714)
(8.14794 -4.37245 -84.4636)
(1.73216 -9.16006 -84.4663)
(-6.57554 -6.64324 -84.4676)
(-3.37227 8.80931 -84.4724)
(8.14795 4.37245 -64.4564)
(8.94741 -1.60659 -64.4594)
(1.73222 9.16035 -64.4539)
(5.73242 -7.35215 -64.4539)
(26.4324 42.4742 -74.7896)
(27.4889 37.8983 -77.9027)
(25.9074 42.3598 -77.1385)
(25.9025 37.6572 -79.4778)
(23.5676 -44.1282 -74.7896)
(19.0765 -42.7553 -77.9027)
(23.731 -43.6164 -77.1386)
(19.6608 -41.2608 -79.4778)
(-47.0061 4.75858 -77.8044)
(-50.1059 0.333596 -76.2783)
(-50.0345 1.32581 -74.4657)
(-46.127 3.52365 -79.3979)
(-21.6345 -27.3489 70.8802)
(-25.014 -43.3285 77.0148)
(-26.3482 42.6237 75.7114)
(-27.4889 37.8983 78.9827)
(49.5376 2.89122 77.0277)
(45.2621 5.05164 79.1774)
(36.1079 -4.1777 68.7523)
(8.26807 6.99164 -79.6115)
(1.9209 -10.6561 -79.6115)
(-10.189 3.66456 -79.6115)
(-8.26805 6.99161 80.6915)
(10.189 3.66456 80.6915)
(-1.92089 -10.6561 80.6915)
(-2.72188 -16.4598 157.8)
(9.03982 -13.7496 157.795)
(16.5293 -3.11192 157.808)
(12.9108 10.3729 157.797)
(-1.23473e-07 16.8978 157.809)
(-15.7987 6.85551 157.834)
(-13.6358 -9.39866 157.797)
(5.90403 -7.77605 -175.501)
(-3.28865 -9.01972 -175.471)
(-0.806609 9.62421 -175.481)
(7.13206 6.42679 -175.471)
(9.50153 -0.423942 -175.466)
(-8.85386 4.10019 -175.507)
(-8.59357 -4.07882 -175.464)
(3.87799 -4.68807 65.5393)
(3.87799 4.68807 65.5393)
(-5.02428 0.808953 86.5887)
(3.87799 4.68807 85.5407)
(6.31429 -3.44929e-08 85.5473)
(3.87799 -4.68807 85.5407)
(3.25566 -3.89036 86.5087)
(-0.702324 -6.19833 85.5443)
(-3.47041 -3.70682 86.5041)
(-4.83094 -3.69846 85.5407)
(8.90431 4.8113 -78.1837)
(2.01837 9.89171 -68.3271)
(1.90453 10.4963 -69.1212)
(-0.201434 10.1675 -70.6698)
(7.65335 6.48701 -80.5481)
(8.15529 6.95309 -79.6223)
(4.49244 9.5153 -75.1092)
(12.8622 32.4089 -69.8057)
(12.8094 35.5254 -67.5606)
(14.4006 32.5312 -68.1811)
(13.9127 35.2649 -65.8175)
(-0.542631 -10.0683 -78.226)
(-8.69382 -5.27326 -70.6237)
(-9.57762 -3.1974 -68.3341)
(-8.61881 5.30576 -78.1837)
(8.92125 -4.86618 -70.6438)
(7.67852 -6.64235 -68.5591)
(1.79117 -9.86957 -80.5531)
(-9.4428 3.38379 -80.5531)
(1.94393 -10.5392 -79.6223)
(5.99397 -8.64833 -75.1096)
(0.144412 -10.5249 -78.1329)
(8.31875 -7.21209 -69.1277)
(24.3726 -28.8404 -67.5901)
(23.584 -29.6812 -65.8175)
(-10.0993 3.58621 -79.6222)
(-10.0012 -3.57807 -69.0864)
(-37.1872 -6.7286 -67.5576)
(-37.5509 -5.6835 -65.6987)
(-8.90431 4.8113 79.2637)
(-1.90453 10.4963 70.2012)
(-2.01837 9.89171 69.4071)
(0.201557 10.1675 71.7498)
(-4.49243 9.51529 76.1892)
(-8.15529 6.95309 80.7023)
(-7.65335 6.487 81.6282)
(-12.8622 32.4089 70.8857)
(-12.7551 35.649 68.5119)
(-14.3939 32.5326 69.2683)
(8.6188 5.30576 79.2637)
(-8.92128 -4.86604 71.7238)
(-7.68262 -6.56094 69.5929)
(-2.05918 -9.8904 76.7615)
(0.261935 -10.1432 79.2362)
(8.69374 -5.27334 71.7037)
(9.57762 -3.19739 69.4141)
(9.4428 3.3838 81.6331)
(-1.79117 -9.86957 81.6331)
(10.0993 3.58621 80.7022)
(10.0012 -3.57806 70.1664)
(37.1751 -6.68507 68.6405)
(-5.88411 -8.8544 73.3097)
(-8.28139 -7.04448 70.2287)
(-5.99397 -8.64834 76.1897)
(-1.94393 -10.5392 80.7023)
(-23.607 -29.6762 66.8926)
(-4.17978 -2.80955 64.5275)
(-6.11026 -1.89949 65.5275)
(-5.08132 -0.033526 64.5206)
(-1.97784 -4.65982 64.5243)
(-0.702324 -6.19833 65.5357)
(3.22159 -3.93911 64.5871)
(4.7778 -1.61172 64.522)
(6.31429 3.44929e-08 65.5327)
(4.93865 1.2079 64.4864)
(3.16996 3.96818 64.5317)
(-0.702324 6.19833 65.5357)
(0.965212 4.92376 64.5227)
(-1.5248 4.8375 64.5234)
(-4.83094 3.69846 65.5393)
(-4.08057 3.02821 64.5331)
(5.03883 -1.17471 -63.4336)
(2.51759 -4.49273 -63.4775)
(-2.43685 -4.54047 -63.3428)
(-5.09933 -0.740403 -63.4624)
(-4.1043 2.99 -63.4601)
(-1.06758 4.98308 -63.4175)
(3.51897 3.84036 -63.4176)
(-3.74967 3.3735 86.5119)
(-6.11026 1.89949 85.5525)
(-1.38254 4.8988 86.5881)
(-0.702324 6.19833 85.5443)
(1.83911 4.74235 86.5479)
(4.23555 2.7992 86.5048)
(4.74542 2.56457 -84.475)
(3.91767 -3.40883 -84.4637)
(-1.89195 -5.05124 -84.4746)
(-5.26641 0.880427 -84.4712)
(-1.00877 5.13883 -84.4653)
(6.11026 -1.89949 -64.4475)
(0.702325 -6.19833 -64.4557)
(-3.878 -4.68807 -64.4593)
(-6.31429 3.44931e-08 -64.4527)
(-3.878 4.68807 -64.4593)
(0.702324 6.19833 -64.4557)
(4.83094 3.69846 -64.4593)
(-26.7184 -27.3916 -34.8065)
(37.4972 -5.58395 66.8957)
(-28.2645 -25.597 -40.9389)
(-24.5026 -28.8544 68.5463)
(-21.8999 31.1899 -21.8847)
(-24.6172 29.0843 -14.2809)
(-13.8968 35.2824 66.8926)
(9.0553 5.41949 -78.1726)
(9.00396 4.43843 -78.1651)
(1.87765 10.2033 -68.835)
(1.82131 9.85979 -68.2013)
(-0.761666 9.99389 -70.6304)
(-8.35273 5.57314 -78.1651)
(-9.78952 -3.47421 -68.8574)
(-9.05531 5.41951 79.2526)
(-9.00396 4.43842 79.2451)
(-1.87765 10.2033 69.915)
(-1.82131 9.8598 69.2814)
(0.761665 9.99389 71.7104)
(8.35274 5.57313 79.2451)
(9.78953 -3.47422 69.9374)
(1.6574 9.91143 -73.1359)
(-9.82014 -2.30333 -65.4616)
(9.94729 1.69316 -65.4801)
(9.6672 -2.82321 -65.446)
(-3.19116 -9.6884 -65.4831)
(2.55341 -9.74761 -83.4686)
(-10.0202 1.1315 -83.4614)
(2.05917 -9.89041 -75.6815)
(5.00967 -8.79663 -72.4478)
(7.76111 -6.38431 -73.1249)
(20.3143 -27.8923 -68.4382)
(-34.3126 -3.64657 -68.4382)
(-1.6574 9.91143 74.2159)
(-9.94729 1.69316 66.5601)
(-9.6672 -2.82322 66.526)
(-2.57478 -9.75457 66.5433)
(7.7893 -6.38329 66.5257)
(9.81239 2.29241 66.5314)
(10.0202 1.1315 84.5414)
(-2.55342 -9.74761 84.5486)
(34.3118 -3.65256 69.524)
(-7.76111 -6.38431 74.2049)
(-20.3191 -27.8886 69.524)
(9.17507 1.65299 65.5339)
(6.57554 -6.64324 65.5324)
(-5.73242 7.35215 85.5461)
(-9.17479 1.65293 -84.4663)
(5.73224 7.35192 -84.4663)
(-6.57555 6.64324 -64.4524)
(-9.17508 -1.65299 -64.4539)
(-3.37246 -8.8098 -64.4481)
(9.17507 1.65299 85.5461)
(-36.1954 -12.0132 -57.5534)
(-36.298 -11.3667 -61.5151)
(-33.6579 -17.8909 -52.5947)
(-32.3995 -19.9276 -46.5266)
(-16.3118 -34.4821 -18.985)
(-11.2161 -36.332 -12.196)
(-0.832607 -38.1344 1.15881)
(-1.72091 -38.0367 -3.17494)
(-7.74067 -37.2445 -10.8105)
(8.50176 -37.0988 12.8684)
(15.8885 -34.6606 22.6247)
(25.3055 -28.5716 36.7864)
(31.5924 -21.2313 48.846)
(35.6759 -13.5412 56.5892)
(31.0802 -22.1483 44.3998)
(35.8973 -12.7556 60.799)
(26.9028 -27.0949 36.2775)
(15.8296 -34.7227 19.3344)
(6.87058 -37.4526 7.63085)
(-17.4319 -33.9143 -23.6353)
(9.27209 36.8901 -62.8183)
(7.24491 37.4336 -57.0802)
(-4.60821 37.8817 -45.2586)
(2.91051 37.9251 -54.6913)
(-14.5368 35.2705 -32.3714)
(-31.0069 22.2417 -5.8386)
(-35.6429 13.3493 6.79274)
(-38.1125 2.10344 21.3695)
(-36.8914 9.58506 14.9559)
(-38.1075 0.521798 26.4725)
(-37.0267 -9.12431 35.4853)
(-34.3085 -16.5286 45.3113)
(-35.722 -13.1838 43.993)
(-33.739 -17.5622 50.0054)
(-26.3614 -27.4364 62.4189)
(-30.2327 -23.1554 55.1819)
(-2.62547 37.9681 -44.5661)
(-13.8815 35.5376 -30.0646)
(-32.6091 19.7883 1.15882)
(-37.4092 -6.99071 35.9544)
(-31.4431 -21.5358 55.7505)
(-33.6935 -37.0805 63.829)
(-41.3844 -28.2391 52.6508)
(-39.0422 -31.2706 59.1498)
(-43.8727 -24.2819 51.0058)
(-47.1693 -17.1658 40.8389)
(-47.55 -15.4553 41.9292)
(-49.4101 -8.02705 34.6636)
(-49.8401 -4.74737 28.6815)
(-50.0473 1.30506 25.6671)
(-49.8594 4.63693 19.7427)
(-48.5027 12.6206 14.8629)
(-47.8933 14.5786 10.067)
(-45.8676 19.9264 7.33487)
(-41.9732 27.7578 -3.73947)
(-42.2089 26.9388 -0.13494)
(-36.4534 34.3261 -9.14961)
(-32.316 38.2377 -17.373)
(-28.7499 40.9775 -18.8522)
(-24.5788 43.6242 -26.4029)
(-20.2331 45.8136 -28.2206)
(-13.4598 48.283 -37.864)
(-12.0399 48.5693 -36.4786)
(-2.83273 49.9941 -48.092)
(8.94913 49.367 -59.6017)
(-2.26102 50.1091 -46.0022)
(9.3776 49.2243 -57.1415)
(18.8952 46.3339 -66.5914)
(22.3375 44.8074 -72.9656)
(-33.4756 -37.3185 66.9738)
(27.5004 -26.2789 -62.4956)
(28.7959 -24.9911 -57.0803)
(35.1106 -14.95 -45.2586)
(31.6114 -21.1596 -54.1986)
(38.0266 0.605452 -25.2698)
(37.8135 -5.04602 -32.3714)
(33.3742 18.3262 -2.10683)
(37.0288 9.57568 -14.0286)
(29.3823 24.193 6.79274)
(20.8779 31.9547 21.3694)
(26.7466 27.1564 14.9559)
(19.5057 32.7412 26.4725)
(10.6115 36.6282 35.4853)
(2.84009 37.9764 45.3112)
(6.44348 37.5281 43.993)
(1.66016 37.9999 50.0054)
(-10.58 36.5479 62.4189)
(-4.93679 37.7599 55.1818)
(34.194 -16.7103 -44.5661)
(37.7173 -5.74703 -30.0646)
(37.4963 6.77704 -14.2809)
(33.4417 18.3462 1.15882)
(12.6505 35.8927 35.9544)
(-2.7224 38.0374 55.5391)
(-15.2658 47.7197 63.829)
(-3.76356 49.9595 52.6508)
(-7.56008 49.4468 59.1498)
(0.907604 50.1359 51.0058)
(8.71865 49.4328 40.8388)
(10.3903 48.9071 41.9292)
(17.7535 46.804 34.6636)
(20.8087 45.5365 28.6815)
(26.1539 42.6897 25.6671)
(28.9454 40.861 19.7426)
(35.1811 35.6943 14.8629)
(39.7518 30.8503 5.66841)
(40.1906 29.7592 7.33482)
(44.4342 23.0846 -0.134944)
(46.4762 18.56 -7.72704)
(47.954 14.4065 -9.14958)
(49.2728 8.86762 -17.373)
(49.8625 4.40942 -18.8522)
(50.0691 -0.526203 -26.4029)
(49.7923 -5.38436 -28.2206)
(48.5442 -12.485 -37.864)
(48.0821 -13.8578 -36.4786)
(44.7743 -22.4231 -48.0077)
(39.9984 -30.0421 -56.5828)
(44.5263 -23.0964 -46.0021)
(37.9407 -32.7334 -57.1415)
(34.2715 -36.4869 -64.7972)
(30.6788 -39.5307 -66.5913)
(30.8197 -39.4568 -69.1726)
(-15.581 47.65 66.9738)
(49.7922 -5.35459 69.0717)
(47.2554 -16.7289 58.0003)
(46.6022 -18.1762 59.1498)
(42.7711 -26.1559 50.7442)
(42.1045 -27.2073 46.7001)
(37.1597 -33.4518 41.9292)
(31.6567 -38.7769 34.6636)
(28.6221 -41.0962 28.1702)
(38.2524 -32.4625 40.5402)
(23.8934 -43.9948 25.6671)
(18.452 -46.5563 17.2107)
(13.3216 -48.3149 14.8629)
(8.11503 -49.4542 6.92332)
(5.67697 -49.6857 7.33482)
(-2.22526 -50.0234 -0.134939)
(-3.45507 -49.951 -4.14138)
(-11.5006 -48.7326 -9.14958)
(-12.7472 -48.4239 -13.1279)
(-21.1126 -45.3869 -18.8522)
(-23.8102 -44.129 -24.4874)
(-29.5591 -40.4292 -28.2206)
(-34.4648 -36.319 -37.098)
(-36.0423 -34.7115 -36.4786)
(-40.9141 -28.7758 -46.6413)
(-42.2653 -27.0127 -46.0021)
(-44.6897 -22.6848 -53.4604)
(-47.3183 -16.491 -57.1415)
(-48.6386 -11.9212 -64.366)
(-49.574 -6.80326 -66.5913)
(49.0566 -10.3315 66.9738)
(7.98317 6.80832 -76.4956)
(7.24433 7.78429 -75.4087)
(8.9714 5.08062 -78.1803)
(1.91737 10.4372 -69.0408)
(2.02034 10.8589 -69.1603)
(0.192772 10.5549 -70.6144)
(-0.118239 10.2673 -70.6154)
(7.90938 6.69305 -79.9186)
(9.60476 26.6982 -70.0611)
(12.4824 31.654 -69.876)
(12.9971 33.0923 -69.4817)
(13.0127 34.6403 -68.4644)
(12.8007 35.2628 -67.8126)
(12.5434 35.6549 -67.2646)
(12.1633 35.9811 -66.6201)
(7.48207 20.2675 -68.8522)
(13.7863 31.0957 -68.4632)
(14.1475 31.9367 -68.2966)
(14.3937 33.0245 -67.8469)
(14.3972 33.9166 -67.2588)
(14.1433 34.8224 -66.377)
(13.5927 35.4682 -65.3385)
(-0.285561 -9.99592 -65.46)
(-2.06132 -9.80287 -65.461)
(-2.54218 -9.67147 -83.46)
(-0.851598 -9.9768 -83.464)
(-4.09313 -9.14045 -83.4556)
(-4.2294 -9.07818 -65.4643)
(-6.03499 -7.99217 -83.4609)
(-5.64443 -8.25472 -65.46)
(-7.00475 -7.15824 -65.4578)
(-7.36741 -6.76175 -83.46)
(-8.41409 -5.4273 -65.4558)
(-9.42624 -3.39446 -65.4621)
(-9.95347 -1.12234 -65.4595)
(-9.94602 1.19034 -65.46)
(-9.42324 3.38658 -65.4565)
(-8.43351 5.4011 -65.4576)
(-7.36741 6.76175 -65.46)
(-6.03499 7.99217 -65.4591)
(-5.64443 8.25472 -83.46)
(-7.00314 7.15968 -83.4623)
(-4.2294 9.07818 -83.4557)
(-4.09313 9.14045 -65.4645)
(-2.54218 9.67147 -83.46)
(-1.99828 9.81099 -65.4556)
(-0.919932 9.97427 -83.4598)
(0.289419 10.0165 -65.4637)
(2.54967 9.68331 -65.4564)
(4.65897 8.86706 -65.4596)
(6.5724 7.56047 -65.4609)
(7.74142 6.33012 -65.46)
(8.73386 4.89747 -65.4566)
(9.62792 2.77172 -65.4626)
(9.8628 1.74267 -83.4621)
(9.23092 3.87757 -83.4644)
(10.0028 0.496259 -65.4646)
(10.0028 -0.496257 -83.4555)
(9.8628 -1.74267 -65.458)
(9.74012 -2.26497 -83.46)
(9.2385 -3.88236 -83.4556)
(9.23019 -3.87997 -65.4558)
(8.107 -5.8898 -65.4637)
(6.96938 -7.17132 -65.46)
(5.65461 -8.26241 -65.4551)
(3.66939 -9.32068 -65.4598)
(1.4074 -9.91868 -65.4612)
(8.10176 -5.88494 -83.4634)
(6.96938 -7.17132 -83.46)
(5.64598 -8.27407 -83.4601)
(4.15415 -9.09632 -83.46)
(2.54446 -9.68432 -83.464)
(0.85575 -9.96332 -83.46)
(8.41254 5.40641 -83.46)
(7.39689 6.74832 -83.4641)
(5.71021 8.22879 -83.4612)
(3.67436 9.31835 -83.4606)
(1.42519 9.91591 -83.4592)
(-8.41216 5.42998 -83.4643)
(-9.21124 3.8927 -83.46)
(-9.75628 2.26983 -83.4601)
(-10.0167 -0.0257755 -83.4603)
(-9.75269 -2.26714 -83.4642)
(-9.21124 -3.8927 -83.46)
(-8.44022 -5.39193 -83.4618)
(1.84166 -10.1962 -79.9186)
(-0.417513 -10.1201 -78.1684)
(-0.0857452 -10.3098 -78.1803)
(-0.907957 -9.96459 -78.1651)
(0.165765 -10.5519 -78.1726)
(8.37319 -7.152 -69.1623)
(8.12493 -6.91898 -69.065)
(7.84307 -6.67797 -68.7746)
(7.64999 -6.4788 -68.0936)
(8.99833 -5.33069 -70.6129)
(8.95759 -4.91491 -70.6021)
(9.03585 -4.32932 -70.6438)
(21.1333 -26.5723 -69.8916)
(22.1602 -27.802 -69.4817)
(23.493 -28.5894 -68.4644)
(24.1381 -28.7171 -67.8126)
(24.6063 -28.6904 -67.2646)
(25.0789 -28.5242 -66.6201)
(13.8111 -16.6134 -68.8522)
(20.0365 -27.4872 -68.4632)
(20.5843 -28.2204 -68.2966)
(21.4033 -28.9776 -67.8469)
(22.174 -29.4266 -67.2588)
(23.0854 -29.6597 -66.377)
(23.92 -29.5057 -65.3385)
(-9.75111 3.50322 -79.9185)
(-8.88575 5.2291 -78.1803)
(-9.22107 5.13238 -78.1726)
(-10.3804 -3.67539 -69.1623)
(-10.0545 -3.57689 -69.065)
(-9.54856 -3.39128 -68.4603)
(-9.429 -3.38885 -68.0366)
(-9.31734 -5.10485 -70.6193)
(-8.88833 -5.20739 -70.6051)
(-8.25676 -5.66908 -70.6263)
(-26.3808 -5.03646 -70.1075)
(-33.6544 -5.01689 -69.876)
(-35.1573 -5.29028 -69.4817)
(-36.5057 -6.05082 -68.4644)
(-36.9388 -6.54566 -67.8126)
(-37.1497 -6.96449 -67.2646)
(-37.2441 -7.47864 -66.5943)
(-21.2932 -3.65409 -68.8522)
(-33.8229 -3.60856 -68.4632)
(-34.7318 -3.71631 -68.2966)
(-35.7969 -4.04698 -67.8469)
(-36.5712 -4.48993 -67.2588)
(-37.2287 -5.16273 -66.377)
(-37.5127 -5.96248 -65.3385)
(-7.98313 6.80836 77.5756)
(-7.24426 7.78432 76.4886)
(-8.9714 5.08066 79.2603)
(-2.02035 10.859 70.2403)
(-1.91737 10.4372 70.1208)
(-0.192881 10.5551 71.6944)
(0.118223 10.2673 71.6954)
(-7.90937 6.69304 80.9986)
(-25.554 36.9047 80.6323)
(-26.1187 38.8244 80.1615)
(-26.1768 40.8081 79.2199)
(-25.5694 42.5005 77.8475)
(-24.6842 43.4691 76.6147)
(-9.6043 26.6974 71.1411)
(-12.4825 31.6541 70.956)
(-12.9971 33.0923 70.5617)
(-13.0127 34.6401 69.5446)
(-12.8007 35.2626 68.8928)
(-12.5436 35.6547 68.3449)
(-12.1678 35.9778 67.7072)
(-7.48177 20.267 69.9322)
(-13.7863 31.0957 69.5433)
(8.43351 5.4011 66.5376)
(7.36741 6.76175 66.54)
(6.03499 7.99217 66.5391)
(5.64443 8.25472 84.54)
(7.00314 7.15967 84.5423)
(4.2294 9.07818 84.5358)
(4.09313 9.14045 66.5444)
(2.54218 9.67147 84.54)
(1.99828 9.81099 66.5356)
(0.919929 9.97427 84.5398)
(-0.289421 10.0165 66.5437)
(-2.54967 9.68331 66.5364)
(-4.65897 8.86706 66.5396)
(-6.5724 7.56047 66.5409)
(-7.74142 6.33012 66.54)
(-8.73386 4.89748 66.5366)
(-9.62792 2.77173 66.5426)
(-9.8628 1.74267 84.5421)
(-9.23091 3.87757 84.5444)
(-10.0028 0.496259 66.5445)
(-10.0028 -0.496256 84.5355)
(-9.86279 -1.74268 66.5379)
(-9.74012 -2.26497 84.54)
(-9.2385 -3.88236 84.5356)
(-9.23018 -3.87997 66.5358)
(-8.107 -5.8898 66.5437)
(-6.96938 -7.17132 66.54)
(-5.65461 -8.26241 66.5351)
(-3.66939 -9.32068 66.5398)
(-1.4074 -9.91868 66.5412)
(0.285561 -9.99592 66.54)
(2.06132 -9.80287 66.541)
(2.54218 -9.67147 84.54)
(0.851595 -9.9768 84.5439)
(4.09313 -9.14045 84.5356)
(4.2294 -9.07818 66.5443)
(6.03499 -7.99217 84.5409)
(5.64443 -8.25472 66.54)
(7.00475 -7.15824 66.5378)
(7.36741 -6.76175 84.54)
(8.41409 -5.4273 66.5358)
(9.42624 -3.39446 66.542)
(9.95347 -1.12234 66.5395)
(9.94602 1.19034 66.54)
(9.42324 3.38658 66.5365)
(8.44023 -5.39193 84.5418)
(9.21124 -3.8927 84.54)
(9.75269 -2.26714 84.5442)
(10.0167 -0.0257732 84.5403)
(9.75628 2.26982 84.5401)
(9.21124 3.8927 84.54)
(8.41216 5.42998 84.5443)
(-8.41254 5.40641 84.54)
(-7.39689 6.74832 84.5441)
(-5.7102 8.22879 84.5412)
(-3.67436 9.31835 84.5406)
(-1.42519 9.91591 84.5392)
(-0.85575 -9.96332 84.54)
(-2.54446 -9.68431 84.544)
(-4.15415 -9.09632 84.54)
(-5.64598 -8.27407 84.5401)
(-6.96938 -7.17132 84.54)
(-8.10176 -5.88494 84.5434)
(9.75111 3.50322 80.9985)
(8.88576 5.22909 79.2603)
(9.2211 5.13237 79.2526)
(10.3804 -3.6754 70.2423)
(10.0544 -3.57688 70.145)
(9.54857 -3.39128 69.5403)
(9.429 -3.38885 69.1166)
(9.31736 -5.10484 71.6993)
(8.88832 -5.2074 71.6851)
(8.25675 -5.66909 71.7063)
(44.7374 3.67804 80.6323)
(46.6823 3.20728 80.1615)
(48.4292 2.2657 79.2199)
(49.5912 0.893396 77.8476)
(49.9875 -0.357461 76.6147)
(26.3805 -5.03646 71.1875)
(33.6545 -5.01689 70.956)
(35.1573 -5.29028 70.5617)
(36.5055 -6.05069 69.5446)
(36.9387 -6.54556 68.8928)
(37.1496 -6.96424 68.3449)
(37.2415 -7.45127 67.7072)
(21.2926 -3.65409 69.9322)
(33.8228 -3.60855 69.5433)
(0.417511 -10.1201 79.2484)
(0.0857271 -10.3098 79.2603)
(0.90794 -9.96459 79.2451)
(-0.16578 -10.5519 79.2526)
(-8.12493 -6.91898 70.145)
(-8.37321 -7.15203 70.2423)
(-8.95758 -4.91494 71.6821)
(-9.03585 -4.32933 71.7238)
(-7.64999 -6.4788 69.1736)
(-7.84308 -6.67798 69.8546)
(-8.99832 -5.33061 71.6929)
(-1.84165 -10.1962 80.9987)
(-13.811 -16.6132 69.9322)
(-20.5845 -28.2201 69.377)
(-20.0365 -27.4871 69.5433)
(-21.4032 -28.9775 68.9269)
(-22.1738 -29.4266 68.3389)
(-23.0854 -29.6597 67.4571)
(-23.9209 -29.5055 66.4165)
(-20.4993 -43.5374 78.1416)
(-22.2349 -44.073 76.9063)
(-18.8174 -42.2675 78.9633)
(-17.774 -41.0057 79.2359)
(-23.7812 -43.9568 75.5042)
(-19.1834 -40.5827 80.6323)
(-9.00426 -0.536203 65.5399)
(-8.75473 2.25688 65.5398)
(-7.69157 4.7029 65.54)
(-6.35782 6.39214 65.5399)
(-4.66255 7.71646 65.54)
(-2.70183 8.60128 65.54)
(-0.58635 8.99635 65.5399)
(1.56428 8.87837 65.54)
(3.71495 8.21988 65.5399)
(6.07002 6.70015 65.5398)
(7.74035 4.62208 65.54)
(8.61564 2.6555 65.5399)
(8.9996 0.538706 65.54)
(8.87102 -1.60851 65.54)
(8.23699 -3.66483 65.5399)
(7.1326 -5.51358 65.54)
(5.61932 -7.04908 65.54)
(3.71495 -8.21988 65.5399)
(1.56428 -8.87837 65.54)
(-0.58635 -8.99635 65.5399)
(-2.70183 -8.60128 65.54)
(-4.66255 -7.71646 65.54)
(-6.35782 -6.39214 65.5399)
(-7.69157 -4.7029 65.54)
(-8.58738 -2.74375 65.54)
(-9.00426 0.536203 85.5401)
(-8.75473 -2.25688 85.5402)
(-7.69157 -4.7029 85.54)
(-6.35782 -6.39214 85.5401)
(-4.66255 -7.71646 85.54)
(-2.70183 -8.60128 85.54)
(-0.58635 -8.99635 85.5401)
(1.56428 -8.87837 85.54)
(3.71495 -8.21988 85.5401)
(5.61932 -7.04908 85.54)
(7.1326 -5.51358 85.54)
(8.23699 -3.66483 85.5401)
(8.87102 -1.60851 85.54)
(8.9996 0.538706 85.54)
(8.61564 2.6555 85.5401)
(7.74035 4.62208 85.54)
(6.07002 6.70015 85.5402)
(3.71495 8.21988 85.5401)
(1.56428 8.87837 85.54)
(-0.58635 8.99635 85.5401)
(-2.70183 8.60128 85.54)
(-4.66255 7.71646 85.54)
(-6.35782 6.39214 85.5401)
(-7.69157 4.7029 85.54)
(-8.58738 2.74375 85.54)
(5.00081 0.390046 215.54)
(4.80254 -1.41644 215.54)
(3.99721 3.00371 215.54)
(4.70005 1.72167 215.54)
(3.22684 3.83852 215.54)
(1.98499 4.59679 215.54)
(0.273711 5.00717 215.54)
(-1.00013 4.89895 215.54)
(-4.13452 -2.82425 215.54)
(-4.81609 -1.36964 215.54)
(-3.16223 -3.87303 215.54)
(-2.21445 -4.49921 215.54)
(-1.00013 -4.89895 215.54)
(-0.0243625 -5.007 215.54)
(1.39109 -4.80259 215.54)
(3.70547 -3.37878 215.54)
(2.3053 -4.4448 215.54)
(4.42728 -2.32362 215.54)
(-3.74256 3.31561 215.54)
(-2.7892 4.16738 215.54)
(-1.77303 4.67508 215.54)
(-4.5999 1.95983 215.54)
(-4.22595 2.67233 215.54)
(-4.85471 1.19658 215.54)
(-4.98379 0.402334 215.54)
(-4.98379 -0.402332 215.54)
(3.77578 -1.4292 -85.4603)
(4.00357 0.3426 -85.4602)
(2.82799 -2.84885 -85.4601)
(1.70098 -3.63603 -85.4601)
(0.373947 -3.99657 -85.4601)
(-0.998886 -3.88731 -85.4601)
(-2.5862 -3.11093 -85.4604)
(-3.64811 -1.67444 -85.4601)
(-3.9993 -0.344916 -85.4602)
(-3.88117 1.02468 -85.4601)
(-3.30681 2.27506 -85.4601)
(-2.29856 3.29599 -85.4601)
(-0.998886 3.88731 -85.4601)
(0.373947 3.99657 -85.4601)
(1.70098 3.63603 -85.4601)
(2.82799 2.84885 -85.4601)
(3.62366 1.72626 -85.4601)
(8.75473 -2.25687 -84.4602)
(9.00426 0.536203 -84.4601)
(7.69156 -4.70289 -84.4601)
(6.35783 -6.39214 -84.4601)
(4.66255 -7.71644 -84.4601)
(2.70182 -8.60128 -84.4601)
(0.586343 -8.99635 -84.4601)
(-1.56429 -8.87837 -84.4601)
(-3.71495 -8.21987 -84.4601)
(-5.61931 -7.04909 -84.4601)
(-7.13259 -5.51358 -84.4601)
(-8.23699 -3.66484 -84.4601)
(-8.87101 -1.60851 -84.4601)
(-8.9996 0.538707 -84.4601)
(-8.61563 2.6555 -84.4601)
(-7.74034 4.62208 -84.4601)
(-6.07 6.70014 -84.4602)
(-3.71495 8.21987 -84.4601)
(-1.56429 8.87837 -84.4601)
(0.586343 8.99635 -84.4601)
(2.70183 8.60128 -84.4601)
(4.66254 7.71645 -84.4601)
(6.35783 6.39214 -84.4601)
(7.69156 4.70289 -84.4601)
(8.58738 2.74374 -84.4601)
(9.00426 -0.536204 -64.4599)
(8.75473 2.25687 -64.4598)
(7.69158 4.7029 -64.46)
(6.35783 6.39214 -64.46)
(4.66255 7.71646 -64.46)
(2.70183 8.60129 -64.46)
(0.586343 8.99636 -64.46)
(-1.56429 8.87838 -64.46)
(-3.71495 8.21988 -64.4599)
(-5.61931 7.04909 -64.46)
(-7.1326 5.51359 -64.46)
(-8.23699 3.66483 -64.46)
(-8.87103 1.60852 -64.46)
(-8.99961 -0.538707 -64.46)
(-8.61564 -2.6555 -64.46)
(-7.74035 -4.62209 -64.46)
(-6.07002 -6.70016 -64.4598)
(-3.71495 -8.21988 -64.4599)
(-1.5643 -8.87838 -64.46)
(0.586343 -8.99636 -64.46)
(2.70183 -8.60129 -64.46)
(4.66255 -7.71646 -64.46)
(6.35783 -6.39214 -64.46)
(7.69158 -4.7029 -64.46)
(8.58739 -2.74375 -64.46)
(27.4549 39.5217 -77.0616)
(26.9083 41.643 -75.5277)
(27.1961 37.4301 -77.8833)
(26.625 35.8956 -78.1559)
(25.862 42.7887 -74.0752)
(25.5694 42.5005 -76.7675)
(24.7089 43.4558 -75.5668)
(26.1768 40.8081 -78.1399)
(26.1187 38.8243 -79.0815)
(25.5539 36.9047 -79.5523)
(20.4993 -43.5374 -77.0616)
(22.6098 -44.1248 -75.5277)
(18.8174 -42.2675 -77.8833)
(17.774 -41.0057 -78.1559)
(24.1251 -43.7915 -74.0752)
(24.0219 -43.394 -76.7676)
(25.2794 -43.1264 -75.5668)
(22.2524 -43.0738 -78.1399)
(20.5635 -42.0316 -79.0815)
(19.1834 -40.5827 -79.5523)
(-36.8196 -9.53511 -60.7654)
(-36.8375 -9.32981 -64.2107)
(-36.1791 -11.6576 -61.1704)
(-35.2465 -14.2848 -54.4914)
(-35.0331 -14.7527 -57.0238)
(-33.3857 -18.2087 -52.2161)
(-33.3686 -18.1993 -49.0267)
(-29.9339 -23.415 -41.1707)
(-27.7313 -26.0039 -36.8995)
(-26.7935 -26.9589 -38.4071)
(-28.9182 -24.6591 -42.344)
(-25.1933 -28.4609 -32.463)
(-22.5968 -30.5676 -28.2401)
(-20.0591 -32.2965 -24.4003)
(-17.6164 -33.6828 -24.0547)
(-20.9047 -31.7601 -28.8517)
(-17.2248 -33.8899 -20.3149)
(-14.0012 -35.3556 -19.0542)
(-14.2152 -35.2506 -16.1866)
(-10.6108 -36.5037 -11.3703)
(-6.40655 -37.4726 -5.94987)
(-3.6944 -37.8306 -5.69816)
(-6.87968 -37.3822 -9.7404)
(-2.88263 -37.9019 -1.49147)
(3.50575 -37.8465 6.55056)
(6.70685 -37.4198 10.6026)
(7.97982 -37.1612 9.04067)
(4.11633 -37.7998 4.12241)
(10.0943 -36.6428 14.9644)
(13.1794 -35.6521 19.0398)
(16.0147 -34.478 22.8973)
(19.0765 -32.8839 27.233)
(19.9551 -32.3522 25.338)
(16.9409 -34.0327 21.0053)
(21.1007 -31.6049 30.2377)
(22.9911 -30.2619 33.1558)
(25.8111 -27.8977 37.7783)
(27.8678 -25.8422 41.4346)
(30.1817 -23.1053 45.9265)
(34.1613 -16.6684 52.2804)
(32.3635 -19.9681 47.5473)
(32.327 -20.0259 50.6507)
(34.5029 -15.9407 56.4674)
(35.5855 -13.3389 60.0111)
(36.7033 -9.86295 64.598)
(37.5129 -5.96331 66.4166)
(36.7304 -9.84407 61.4479)
(35.5532 -13.4586 56.6662)
(29.6528 -23.7781 41.6766)
(27.7902 -25.9427 38.0855)
(25.2215 -28.433 33.5949)
(22.9027 -30.3422 29.8163)
(14.3206 -35.2161 17.386)
(11.1471 -36.3449 13.1555)
(0.258905 -38.0108 2.45909)
(-0.159432 -38.016 -1.25437)
(-9.84481 -36.7196 -13.5623)
(-24.4095 -29.1443 -34.3432)
(-31.0191 -21.9787 -46.622)
(-31.735 -20.9148 -45.0441)
(-49.9851 1.05852 -74.131)
(-49.6467 2.20234 -75.2481)
(-49.5912 0.893405 -76.7676)
(-49.9864 -0.355846 -75.5454)
(-48.7697 3.36421 -76.41)
(-48.7609 1.94535 -77.8196)
(-47.5077 2.84236 -78.7166)
(-47.5012 4.25033 -77.2961)
(-46.0135 4.83747 -77.8833)
(-45.8646 3.46252 -79.3367)
(-44.399 5.1101 -78.1559)
(-44.3445 3.69727 -79.5715)
(-21.1333 -26.5724 70.9716)
(-24.0219 -43.394 77.8475)
(-25.3033 -43.1117 76.6147)
(-22.2524 -43.0738 79.2199)
(-20.5636 -42.0317 80.1615)
(-25.0738 -28.5265 67.7072)
(-24.606 -28.6904 68.3449)
(-24.138 -28.7171 68.8928)
(-23.4928 -28.5894 69.5446)
(-22.1602 -27.802 70.5617)
(8.72396 37.0118 -62.1075)
(11.8215 36.1205 -62.973)
(9.3345 36.8461 -59.7113)
(5.81853 37.5645 -55.2044)
(2.89554 37.9023 -51.5075)
(-0.156677 38.0157 -50.8568)
(3.62487 37.8578 -55.6173)
(-3.52283 37.8528 -46.6241)
(-0.487158 38.0071 -47.2533)
(-4.41814 37.7552 -42.3024)
(-7.84566 37.1957 -41.1217)
(-14.6046 35.0992 -32.2276)
(-11.3415 36.2767 -36.5834)
(-12.0512 36.0485 -32.463)
(-15.1739 34.8532 -28.2401)
(-17.5471 33.7231 -28.1545)
(-17.8457 33.5603 -24.5255)
(-20.3457 32.1079 -24.0849)
(-25.659 28.051 -15.6796)
(-22.9988 30.2604 -20.0217)
(-23.4203 29.936 -16.1865)
(-26.3077 27.4411 -11.3704)
(-28.0209 25.6776 -11.4808)
(-31.9581 20.5889 -3.37973)
(-30.0615 23.2643 -7.50009)
(-31.3827 21.4473 -1.49144)
(-33.0477 18.7812 2.459)
(-33.6624 17.6662 0.869479)
(-34.529 15.8872 6.55058)
(-35.465 13.6893 6.36399)
(-37.3896 6.87385 15.2648)
(-36.6028 10.2365 10.9284)
(-36.7807 9.57956 14.9644)
(-37.4653 6.41229 19.0399)
(-37.8388 3.66033 19.3333)
(-37.8519 3.45006 22.7956)
(-38.0143 0.317085 23.5533)
(-37.9004 -2.97985 27.6918)
(-37.5426 -5.9609 31.4649)
(-36.8315 -9.42012 35.9016)
(-35.9812 -12.2689 39.6385)
(-34.676 -15.5841 44.1135)
(-35.1006 -14.5854 45.9265)
(-33.5064 -17.9831 50.6507)
(-33.0705 -18.7381 48.55)
(-29.432 -24.0608 56.6665)
(-31.5155 -21.251 52.2814)
(-30.9029 -22.1261 56.8132)
(-29.3446 -24.1485 60.0111)
(-26.8903 -26.8875 61.448)
(-26.8932 -26.8545 64.598)
(-8.65436 37.018 -36.8995)
(-20.7372 31.8621 -20.3148)
(-29.2489 24.2846 -5.94994)
(-35.7599 12.9016 10.6026)
(-38.0166 -0.0788954 27.2331)
(-37.921 -2.47129 30.2377)
(-37.7042 -4.86526 33.2621)
(-37.0657 -8.40416 37.7782)
(-36.2551 -11.4448 41.7367)
(-27.6314 -41.6973 71.2189)
(-27.3157 -41.8835 74.3177)
(-31.6388 -38.7419 66.4632)
(-30.6474 -39.5386 70.4397)
(-34.2322 -36.4721 65.9368)
(-34.3535 -36.3257 62.9888)
(-36.8248 -33.8572 59.66)
(-36.8995 -33.7388 62.2886)
(-40.0087 -30.0279 54.9038)
(-39.2121 -31.0647 58.9141)
(-42.1265 -26.9853 54.1261)
(-42.8948 -25.7458 49.9698)
(-44.6676 -22.5229 49.2154)
(-45.1622 -21.5046 45.3793)
(-46.2074 -19.1156 45.6496)
(-46.8634 -17.4258 41.1914)
(-47.4644 -15.7402 42.2102)
(-48.7417 -11.2256 37.7269)
(-48.7206 -11.217 34.9624)
(-47.8606 -14.5323 38.2344)
(-49.4424 -7.51146 31.3501)
(-49.6133 -6.39047 33.0402)
(-50.0099 -1.26775 28.1266)
(-49.9719 2.16222 22.093)
(-49.9441 -2.5819 26.6169)
(-49.8951 3.48374 23.5945)
(-49.5227 7.03646 17.4188)
(-49.318 8.31814 18.9505)
(-48.5923 11.8652 12.7227)
(-48.5539 11.9201 15.4149)
(-47.5471 15.5021 11.8741)
(-47.1946 16.5728 8.03333)
(-45.7794 20.1368 7.14135)
(-45.3413 21.1227 3.34184)
(-43.5833 24.5399 2.4371)
(-43.0449 25.4785 -1.36043)
(-40.9626 28.7054 -2.26264)
(-40.3249 29.5958 -6.07298)
(-37.9414 32.5893 -6.96692)
(-37.2211 33.4152 -10.7728)
(-34.5238 36.1855 -11.7009)
(-33.7643 36.9046 -15.4633)
(-30.7671 39.4297 -16.4372)
(-29.9826 40.0378 -20.1529)
(-26.7366 42.2715 -21.1518)
(-25.9053 42.7891 -24.8501)
(-22.4351 44.7081 -25.873)
(-21.5643 45.1329 -29.5614)
(-17.9415 46.6914 -30.5686)
(-17.0199 47.035 -34.266)
(-13.23 48.2335 -35.2984)
(-11.0845 48.8012 -40.1801)
(-9.61868 49.0636 -38.8378)
(-5.43486 49.7168 -45.6403)
(3.50209 49.8834 -54.1906)
(-0.498282 50.0144 -50.3642)
(7.08746 49.5164 -57.6256)
(-5.92935 49.6682 -42.4028)
(-1.46045 49.9982 -46.6823)
(2.53942 49.9382 -50.5056)
(6.02848 49.6577 -53.8512)
(10.6709 48.8531 -61.1103)
(14.3629 47.9154 -64.7441)
(10.3049 48.9464 -57.9762)
(13.103 48.2755 -60.7256)
(16.6368 47.1528 -64.2861)
(18.5299 46.4417 -68.9477)
(19.9776 45.8578 -67.6926)
(21.1904 45.3118 -71.7245)