/*--------------------------------*- C++ -*----------------------------------*\
  =========                 |
  \\      /  F ield         | OpenFOAM: The Open Source CFD Toolbox
   \\    /   O peration     | Website:  https://openfoam.org
    \\  /    A nd           | Version:  6
     \\/     M anipulation  |
\*---------------------------------------------------------------------------*/
FoamFile
{
    version     2.0;
    format      ascii;
    class       featureEdgeMesh;
    location    "constant/triSurface";
    object      airfoil.eMesh;
}
// * * * * * * * * * * * * * * * * * * * * * * * * * * * * * * * * * * * * * //


// points:

112
(
(-0.014403 0.054149 -0.2)
(-0.014403 0.054149 0.2)
(0.03775 0.033663 -0.2)
(0.03775 0.033663 0.2)
(0.000411 -0.001831 -0.2)
(0.000411 -0.001831 0.2)
(0.983391 0.086407 -0.2)
(0.983391 0.086407 0.2)
(0.983577 0.087377 -0.2)
(0.983577 0.087377 0.2)
(0 0 -0.2)
(-0 -0 0.2)
(0.046652 0.03793 -0.2)
(0.046652 0.03793 0.2)
(0.068684 0.046092 -0.2)
(0.068684 0.046092 0.2)
(0.094888 0.053734 -0.2)
(0.094888 0.053734 0.2)
(0.005198 -0.006983 -0.2)
(0.005198 -0.006984 0.2)
(0.015146 -0.011574 -0.2)
(0.015146 -0.011574 0.2)
(0.029815 -0.015049 -0.2)
(0.029815 -0.015049 0.2)
(0.049315 -0.017177 -0.2)
(0.049315 -0.017177 0.2)
(0.073672 -0.018028 -0.2)
(0.073672 -0.018028 0.2)
(0.102665 -0.01772 -0.2)
(0.102665 -0.01772 0.2)
(0.136008 -0.016298 -0.2)
(0.136008 -0.016298 0.2)
(0.173364 -0.013823 -0.2)
(0.173364 -0.013823 0.2)
(0.125112 0.060745 -0.2)
(0.125112 0.060745 0.2)
(0.159182 0.067049 -0.2)
(0.159182 0.067049 0.2)
(0.196821 0.07261 -0.2)
(0.196821 0.07261 0.2)
(0.214398 -0.010353 -0.2)
(0.214398 -0.010353 0.2)
(0.258697 -0.005996 -0.2)
(0.258697 -0.005996 0.2)
(0.237738 0.077405 -0.2)
(0.237738 0.077405 0.2)
(0.3058 -0.000871 -0.2)
(0.3058 -0.000871 0.2)
(0.281574 0.081431 -0.2)
(0.281574 0.081431 0.2)
(0.327915 0.084712 -0.2)
(0.327915 0.084712 0.2)
(0.355185 0.004895 -0.2)
(0.355185 0.004895 0.2)
(0.376325 0.087281 -0.2)
(0.376325 0.087281 0.2)
(0.406292 0.011173 -0.2)
(0.406292 0.011173 0.2)
(0.458558 0.017864 -0.2)
(0.458558 0.017864 0.2)
(0.511389 0.024865 -0.2)
(0.511389 0.024865 0.2)
(0.564192 0.032065 -0.2)
(0.564192 0.032065 0.2)
(0.616394 0.039372 -0.2)
(0.616394 0.039372 0.2)
(0.426337 0.089207 -0.2)
(0.426337 0.089207 0.2)
(0.477425 0.090545 -0.2)
(0.477425 0.090545 0.2)
(0.529037 0.091396 -0.2)
(0.529037 0.091396 0.2)
(0.580617 0.091814 -0.2)
(0.580617 0.091813 0.2)
(0.631565 0.091884 -0.2)
(0.631565 0.091884 0.2)
(0.667451 0.04668 -0.2)
(0.667451 0.04668 0.2)
(0.68133 0.091701 -0.2)
(0.68133 0.091701 0.2)
(0.716868 0.053814 -0.2)
(0.716868 0.053814 0.2)
(0.729303 0.091351 -0.2)
(0.729303 0.091351 0.2)
(0.774874 0.090921 -0.2)
(0.774874 0.090921 0.2)
(0.764071 0.060544 -0.2)
(0.764071 0.060544 0.2)
(0.817469 0.090431 -0.2)
(0.817469 0.090431 0.2)
(0.808444 0.066684 -0.2)
(0.808444 0.066684 0.2)
(0.856541 0.089935 0.2)
(0.856541 0.089935 -0.2)
(0.849358 0.072101 -0.2)
(0.849358 0.072101 0.2)
(0.891598 0.089438 -0.2)
(0.891598 0.089438 0.2)
(0.886256 0.076714 -0.2)
(0.886256 0.076714 0.2)
(0.922147 0.088949 -0.2)
(0.922147 0.088949 0.2)
(0.918584 0.080446 -0.2)
(0.918584 0.080446 0.2)
(0.947831 0.088415 -0.2)
(0.947831 0.088415 0.2)
(0.945862 0.083274 -0.2)
(0.945862 0.083274 0.2)
(0.967594 0.085226 -0.2)
(0.967594 0.085226 0.2)
(0.96838 0.087834 -0.2)
(0.96838 0.087834 0.2)
)


// edges:

117
(
(2 3)
(0 1)
(5 4)
(7 6)
(8 9)
(10 0)
(1 11)
(0 2)
(3 1)
(2 12)
(13 3)
(12 14)
(15 13)
(14 16)
(17 15)
(4 10)
(11 5)
(18 4)
(5 19)
(20 18)
(19 21)
(22 20)
(21 23)
(24 22)
(23 25)
(26 24)
(25 27)
(28 26)
(27 29)
(30 28)
(29 31)
(32 30)
(31 33)
(16 34)
(35 17)
(34 36)
(37 35)
(36 38)
(39 37)
(40 32)
(33 41)
(42 40)
(41 43)
(38 44)
(45 39)
(46 42)
(43 47)
(44 48)
(49 45)
(48 50)
(51 49)
(52 46)
(47 53)
(50 54)
(55 51)
(56 52)
(53 57)
(58 56)
(57 59)
(60 58)
(59 61)
(62 60)
(61 63)
(64 62)
(63 65)
(54 66)
(67 55)
(66 68)
(69 67)
(68 70)
(71 69)
(70 72)
(73 71)
(72 74)
(75 73)
(76 64)
(65 77)
(74 78)
(79 75)
(80 76)
(77 81)
(78 82)
(83 79)
(82 84)
(85 83)
(86 80)
(81 87)
(84 88)
(89 85)
(90 86)
(87 91)
(92 89)
(88 93)
(94 90)
(91 95)
(93 96)
(97 92)
(98 94)
(95 99)
(96 100)
(101 97)
(102 98)
(99 103)
(100 104)
(105 101)
(106 102)
(103 107)
(108 106)
(107 109)
(6 108)
(109 7)
(104 110)
(111 105)
(110 8)
(9 111)
(7 9)
(8 6)
)

// * * * * * * * * * * * * * * * * * * * * * * * * * * * * * * * * * * * * * //


// ************************************************************************* //
