/*--------------------------------*- C++ -*----------------------------------*\
  =========                 |
  \\      /  F ield         | OpenFOAM: The Open Source CFD Toolbox
   \\    /   O peration     | Website:  https://openfoam.org
    \\  /    A nd           | Version:  6
     \\/     M anipulation  |
\*---------------------------------------------------------------------------*/
FoamFile
{
    version     2.0;
    format      ascii;
    class       polyBoundaryMesh;
    location    "constant/polyMesh";
    object      boundary;
}
// * * * * * * * * * * * * * * * * * * * * * * * * * * * * * * * * * * * * * //

7
(
    west
    {
        type            patch;
        nFaces          24;
        startFace       38300;
    }
    east
    {
        type            patch;
        nFaces          24;
        startFace       38324;
    }
    north
    {
        type            patch;
        nFaces          48;
        startFace       38348;
    }
    south
    {
        type            patch;
        nFaces          48;
        startFace       38396;
    }
    front
    {
        type            empty;
        inGroups        1(empty);
        nFaces          19117;
        startFace       38444;
    }
    back
    {
        type            empty;
        inGroups        1(empty);
        nFaces          19117;
        startFace       57561;
    }
    airfoil
    {
        type            wall;
        inGroups        1(wall);
        nFaces          738;
        startFace       76678;
    }
)

// ************************************************************************* //
