/*--------------------------------*- C++ -*----------------------------------*\
  =========                 |
  \\      /  F ield         | OpenFOAM: The Open Source CFD Toolbox
   \\    /   O peration     | Website:  https://openfoam.org
    \\  /    A nd           | Version:  6
     \\/     M anipulation  |
\*---------------------------------------------------------------------------*/
FoamFile
{
    version     2.0;
    format      ascii;
    class       extendedFeatureEdgeMesh;
    location    "constant/extendedFeatureEdgeMesh";
    object      airfoil.extendedFeatureEdgeMesh;
}
// * * * * * * * * * * * * * * * * * * * * * * * * * * * * * * * * * * * * * //

// points

114
(
(0.00025 -0.00186 -0.2)
(0.00025 -0.00186 0.2)
(0.98745 0.00132 -0.2)
(0.98745 0.00132 0.2)
(0.98718 0.00037 -0.2)
(0.98718 0.00037 0.2)
(0.00127 0.00438 -0.2)
(0.00127 0.00438 0.2)
(0.00697 0.01172 -0.2)
(0.00697 0.01172 0.2)
(0.01702 0.01932 -0.2)
(0.01702 0.01932 0.2)
(0.0313 0.02677 -0.2)
(0.0313 0.02677 0.2)
(0.04978 0.03372 -0.2)
(0.04978 0.03372 0.2)
(0.07244 0.03993 -0.2)
(0.07244 0.03993 0.2)
(0.09921 0.04526 -0.2)
(0.09921 0.04526 0.2)
(0.12993 0.04961 -0.2)
(0.12993 0.04961 0.2)
(0.16442 0.05292 -0.2)
(0.16442 0.05292 0.2)
(0.2024 0.05518 -0.2)
(0.2024 0.05518 0.2)
(0.24358 0.05639 -0.2)
(0.24358 0.05639 0.2)
(0.2876 0.05658 -0.2)
(0.2876 0.05658 0.2)
(0.33405 0.05581 -0.2)
(0.33405 0.05581 0.2)
(0.3825 0.05415 -0.2)
(0.3825 0.05415 0.2)
(0.43249 0.05171 -0.2)
(0.43249 0.05171 0.2)
(0.4835 0.04859 -0.2)
(0.4835 0.04859 0.2)
(0.53499 0.04494 -0.2)
(0.53499 0.04494 0.2)
(0.51161 -0.0198 -0.2)
(0.45837 -0.02217 -0.2)
(0.45837 -0.02217 0.2)
(0.51161 -0.0198 0.2)
(0.56484 -0.01723 -0.2)
(0.56484 -0.01723 0.2)
(0.58641 0.04086 -0.2)
(0.58641 0.04086 0.2)
(0.61748 -0.0145 -0.2)
(0.61748 -0.0145 0.2)
(0.63717 0.03649 -0.2)
(0.63717 0.03649 0.2)
(0.40572 -0.02428 -0.2)
(0.40572 -0.02428 0.2)
(0.35426 -0.02608 -0.2)
(0.35426 -0.02608 0.2)
(0.30456 -0.02752 -0.2)
(0.30456 -0.02752 0.2)
(0.25719 -0.02852 -0.2)
(0.25719 -0.02852 0.2)
(0.21268 -0.029 -0.2)
(0.21268 -0.029 0.2)
(0.1715 -0.02888 -0.2)
(0.1715 -0.02888 0.2)
(0.13407 -0.02809 -0.2)
(0.13407 -0.02809 0.2)
(0.10073 -0.0266 -0.2)
(0.10073 -0.0266 0.2)
(0.07182 -0.02438 -0.2)
(0.07182 -0.02438 0.2)
(0.04763 -0.02141 -0.2)
(0.04763 -0.02141 0.2)
(0.02839 -0.01759 -0.2)
(0.02839 -0.01759 0.2)
(0.01408 -0.01285 -0.2)
(0.01408 -0.01285 0.2)
(0.00457 -0.00741 -0.2)
(0.00457 -0.00741 0.2)
(0.68673 0.03197 -0.2)
(0.68673 0.03197 0.2)
(0.73449 0.02744 -0.2)
(0.73449 0.02744 0.2)
(0.77985 0.02304 -0.2)
(0.77985 0.02304 0.2)
(0.82224 0.01884 -0.2)
(0.82224 0.01884 0.2)
(0.86112 0.01494 0.2)
(0.86112 0.01494 -0.2)
(0.896 0.01139 -0.2)
(0.896 0.01139 0.2)
(0.66898 -0.01167 -0.2)
(0.66898 -0.01167 0.2)
(0.71883 -0.00887 -0.2)
(0.71883 -0.00887 0.2)
(0.76644 -0.00628 -0.2)
(0.76644 -0.00628 0.2)
(0.81118 -0.00403 -0.2)
(0.81118 -0.00403 0.2)
(0.85241 -0.0022 -0.2)
(0.85241 -0.0022 0.2)
(0.88957 -0.00082 -0.2)
(0.88957 -0.00082 0.2)
(0.92639 0.00824 -0.2)
(0.92639 0.00824 0.2)
(0.95193 0.00547 -0.2)
(0.95193 0.00547 0.2)
(0.9221 8e-05 -0.2)
(0.9221 8e-05 0.2)
(0.94952 0.00052 -0.2)
(0.94952 0.00052 0.2)
(0.97134 0.00057 -0.2)
(0.97134 0.00057 0.2)
(0.97235 0.0031 -0.2)
(0.97235 0.0031 0.2)
)

// edges

117
(
(1 0)
(2 3)
(4 5)
(0 6)
(7 1)
(6 8)
(9 7)
(8 10)
(11 9)
(10 12)
(13 11)
(12 14)
(15 13)
(14 16)
(17 15)
(16 18)
(19 17)
(18 20)
(21 19)
(20 22)
(23 21)
(22 24)
(25 23)
(24 26)
(27 25)
(26 28)
(29 27)
(28 30)
(31 29)
(30 32)
(33 31)
(32 34)
(35 33)
(34 36)
(37 35)
(36 38)
(39 37)
(40 41)
(42 43)
(44 40)
(43 45)
(38 46)
(47 39)
(48 44)
(45 49)
(46 50)
(51 47)
(41 52)
(53 42)
(52 54)
(55 53)
(54 56)
(57 55)
(56 58)
(59 57)
(58 60)
(61 59)
(60 62)
(63 61)
(62 64)
(65 63)
(64 66)
(67 65)
(66 68)
(69 67)
(68 70)
(71 69)
(70 72)
(73 71)
(72 74)
(75 73)
(76 0)
(1 77)
(74 76)
(77 75)
(50 78)
(79 51)
(78 80)
(81 79)
(80 82)
(83 81)
(82 84)
(85 83)
(86 85)
(84 87)
(87 88)
(89 86)
(90 48)
(49 91)
(92 90)
(91 93)
(94 92)
(93 95)
(96 94)
(95 97)
(98 96)
(97 99)
(100 98)
(99 101)
(88 102)
(103 89)
(102 104)
(105 103)
(106 100)
(101 107)
(108 106)
(107 109)
(110 108)
(109 111)
(104 112)
(113 105)
(112 2)
(3 113)
(5 3)
(2 4)
(111 5)
(4 110)
)

// concaveStart mixedStart nonFeatureStart
0 0 6
// internalStart flatStart openStart multipleStart
0 3 3 117
// normals

114
(
(0.986902 -0.161321 0)
(0.986902 -0.161321 0)
(0.789816 -0.613344 0)
(0.789816 -0.613344 0)
(0.60317 -0.797613 0)
(0.60317 -0.797613 0)
(0.462545 -0.886596 0)
(0.462545 -0.886596 0)
(0.352011 -0.935996 0)
(0.352011 -0.935996 0)
(0.264306 -0.964439 0)
(0.264306 -0.964439 0)
(0.195271 -0.980749 0)
(0.195271 -0.980749 0)
(0.140203 -0.990123 0)
(0.140203 -0.990123 0)
(0.0955309 -0.995426 0)
(0.0955309 -0.995426 0)
(0.0593999 -0.998234 0)
(0.0593999 -0.998234 0)
(0.0293705 -0.999569 0)
(0.0293705 -0.999569 0)
(0.00431618 -0.999991 0)
(0.00431618 -0.999991 0)
(-0.0165747 -0.999863 0)
(-0.0165747 -0.999863 0)
(-0.034242 -0.999414 0)
(-0.034242 -0.999414 0)
(-0.0487517 -0.998811 0)
(-0.0487517 -0.998811 0)
(-0.0610504 -0.998135 0)
(-0.0610504 -0.998135 0)
(-0.0707101 -0.997497 0)
(-0.0707101 -0.997497 0)
(-0.0444714 0.999011 0)
(-0.0444714 0.999011 0)
(-0.0482249 0.998837 0)
(-0.0482249 0.998837 0)
(-0.079098 -0.996867 0)
(-0.079098 -0.996867 0)
(-0.0517921 0.998658 0)
(-0.0517921 0.998658 0)
(-0.0857741 -0.996315 0)
(-0.0857741 -0.996315 0)
(-0.0400438 0.999198 0)
(-0.0400438 0.999198 0)
(-0.0349572 0.999389 0)
(-0.0349572 0.999389 0)
(-0.0289617 0.999581 0)
(-0.0289617 0.999581 0)
(-0.0211057 0.999777 0)
(-0.0211057 0.999777 0)
(-0.0107835 0.999942 0)
(-0.0107835 0.999942 0)
(0.00291402 0.999996 0)
(0.00291402 0.999996 -0)
(0.0211014 0.999777 0)
(0.0211014 0.999777 -0)
(0.0446465 0.999003 0)
(0.0446465 0.999003 -0)
(0.0765646 0.997065 0)
(0.0765646 0.997065 -0)
(0.121863 0.992547 0)
(0.121863 0.992547 -0)
(0.194743 0.980854 0)
(0.194743 0.980854 -0)
(0.314436 0.949279 0)
(0.314436 0.949279 -0)
(0.789122 0.614236 0)
(0.789122 0.614236 -0)
(0.496532 0.868018 0)
(0.496532 0.868018 -0)
(-0.0908256 -0.995867 0)
(-0.0908256 -0.995867 0)
(-0.0944255 -0.995532 0)
(-0.0944255 -0.995532 0)
(-0.0965486 -0.995328 0)
(-0.0965486 -0.995328 0)
(-0.0985972 -0.995127 0)
(-0.0985972 -0.995127 0)
(-0.0998078 -0.995007 0)
(-0.0998078 -0.995007 0)
(-0.101254 -0.994861 0)
(-0.101254 -0.994861 0)
(-0.0548687 0.998494 0)
(-0.0548687 0.998494 0)
(-0.0560801 0.998426 0)
(-0.0560801 0.998426 0)
(-0.05432 0.998524 0)
(-0.05432 0.998524 0)
(-0.0502271 0.998738 0)
(-0.0502271 0.998738 0)
(-0.0443415 0.999016 0)
(-0.0443415 0.999016 0)
(-0.0371111 0.999311 0)
(-0.0371111 0.999311 0)
(-0.1031 -0.994671 0)
(-0.1031 -0.994671 0)
(-0.107825 -0.99417 0)
(-0.107825 -0.99417 0)
(-0.0276562 0.999617 0)
(-0.0276562 0.999617 0)
(-0.0160446 0.999871 0)
(-0.0160446 0.999871 0)
(-0.00229147 0.999997 0)
(-0.00229147 0.999997 0)
(-0.115289 -0.993332 0)
(-0.115289 -0.993332 0)
(-0.11707 -0.993124 0)
(-0.11707 -0.993124 0)
(-0.961905 0.273384 0)
(-0.961905 0.273384 0)
(0.0126253 0.99992 0)
(0.0126253 0.99992 0)
)

// normal volume types

114
(
0
0
0
0
0
0
0
0
0
0
0
0
0
0
0
0
0
0
0
0
0
0
0
0
0
0
0
0
0
0
0
0
0
0
0
0
0
0
0
0
0
0
0
0
0
0
0
0
0
0
0
0
0
0
0
0
0
0
0
0
0
0
0
0
0
0
0
0
0
0
0
0
0
0
0
0
0
0
0
0
0
0
0
0
0
0
0
0
0
0
0
0
0
0
0
0
0
0
0
0
0
0
0
0
0
0
0
0
0
0
0
0
0
0
)

// normalDirections

117
(
2(1 -1)
2(1 -1)
2(1 -1)
1(1)
1(1)
1(1)
1(1)
1(1)
1(1)
1(1)
1(1)
1(1)
1(1)
1(1)
1(1)
1(1)
1(1)
1(1)
1(1)
1(1)
1(1)
1(1)
1(1)
1(1)
1(1)
1(1)
1(1)
1(1)
1(1)
1(1)
1(1)
1(1)
1(1)
1(1)
1(1)
1(1)
1(1)
1(1)
1(1)
1(1)
1(1)
1(1)
1(1)
1(1)
1(1)
1(1)
1(1)
1(1)
1(1)
1(1)
1(1)
1(1)
1(1)
1(1)
1(1)
1(1)
1(1)
1(1)
1(1)
1(1)
1(1)
1(1)
1(1)
1(1)
1(1)
1(1)
1(1)
1(1)
1(1)
1(1)
1(1)
1(1)
1(1)
1(1)
1(1)
1(1)
1(1)
1(1)
1(1)
1(1)
1(1)
1(1)
1(1)
1(1)
1(1)
1(1)
1(1)
1(1)
1(1)
1(1)
1(1)
1(1)
1(1)
1(1)
1(1)
1(1)
1(1)
1(1)
1(1)
1(1)
1(1)
1(1)
1(1)
1(1)
1(1)
1(1)
1(1)
1(1)
1(1)
1(1)
1(1)
1(1)
1(1)
1(1)
1(1)
1(1)
1(1)
)

// edgeNormals

117
(
2(1 68)
2(108 111)
2(110 112)
1(0)
1(1)
1(2)
1(3)
1(4)
1(5)
1(6)
1(7)
1(8)
1(9)
1(10)
1(11)
1(12)
1(13)
1(14)
1(15)
1(16)
1(17)
1(18)
1(19)
1(20)
1(21)
1(22)
1(23)
1(24)
1(25)
1(26)
1(27)
1(28)
1(29)
1(30)
1(31)
1(32)
1(33)
1(34)
1(35)
1(36)
1(37)
1(38)
1(39)
1(40)
1(41)
1(42)
1(43)
1(44)
1(45)
1(46)
1(47)
1(48)
1(49)
1(50)
1(51)
1(52)
1(53)
1(54)
1(55)
1(56)
1(57)
1(58)
1(59)
1(60)
1(61)
1(62)
1(63)
1(64)
1(65)
1(66)
1(67)
1(68)
1(69)
1(70)
1(71)
1(72)
1(73)
1(74)
1(75)
1(76)
1(77)
1(78)
1(79)
1(80)
1(81)
1(82)
1(83)
1(84)
1(85)
1(86)
1(87)
1(88)
1(89)
1(90)
1(91)
1(92)
1(93)
1(94)
1(95)
1(96)
1(97)
1(98)
1(99)
1(100)
1(101)
1(102)
1(103)
1(104)
1(105)
1(106)
1(107)
1(108)
1(109)
1(110)
1(111)
1(112)
1(113)
)

// featurePointNormals

6
(
2(1 68)
2(1 68)
2(108 111)
2(108 111)
2(110 112)
2(110 112)
)

// featurePointEdges

6
(
3(0 3 71)
3(0 4 72)
3(1 111 114)
3(1 112 113)
3(2 114 116)
3(2 113 115)
)

// regionEdges

114
(
3
4
5
6
7
8
9
10
11
12
13
14
15
16
17
18
19
20
21
22
23
24
25
26
27
28
29
30
31
32
33
34
35
36
37
38
39
40
41
42
43
44
45
46
47
48
49
50
51
52
53
54
55
56
57
58
59
60
61
62
63
64
65
66
67
68
69
70
71
72
73
74
75
76
77
78
79
80
81
82
83
84
85
86
87
88
89
90
91
92
93
94
95
96
97
98
99
100
101
102
103
104
105
106
107
108
109
110
111
112
113
114
115
116
)



// ************************************************************************* //
