/*--------------------------------*- C++ -*----------------------------------*\
| =========                 |                                                 |
| \\      /  F ield         | OpenFOAM: The Open Source CFD Toolbox           |
|  \\    /   O peration     | Version:  v2206                                 |
|   \\  /    A nd           | Website:  www.openfoam.com                      |
|    \\/     M anipulation  |                                                 |
\*---------------------------------------------------------------------------*/
FoamFile
{
    version     2.0;
    format      ascii;
    class       volScalarField;
    object      Sco2;
}
// * * * * * * * * * * * * * * * * * * * * * * * * * * * * * * * * * * * * * //

dimensions      [1 -3 0 0 0 0 0];

// internalField   uniform 0.00942;

// boundaryField
// {
//     movingWall
//     {
//         type            fixedValue;
//         value           uniform 0.00942;
//     }

internalField   uniform 9.42;

boundaryField
{
    bottom
    {
        type            zeroGradient;
    }

    top
    {
        type            zeroGradient;
    }

    left
    {
        type            zeroGradient;
    }

    right
    {
        type            zeroGradient;
    }

    frontAndBack
    {
        type            empty;
    }
}

// ************************************************************************* //
